file 55730 1652240149                                           
version 2
run General-0-20220511-11:35:33-91795
attr configname General
attr datetime 20220511-11:35:33
attr experiment General
attr inifile PingAttack.ini
attr iterationvars ""
attr iterationvarsf ""
attr measurement ""
attr network Ping攻击
attr processid 91795
attr repetition 0
attr replication #0
attr resultdir results
attr runnumber 0
attr seedset 0
param *.numSubnet*Attackers 2
param *.numSubnet*Clients 1
param *.总线[0].positions "\"40\""
param *.总线[1].positions "\"33\""
param *.路由器[*].eth[*].mac.queue.packetCapacity 3
param *.路由器[*].ppp[*].ppp.queue.packetCapacity 3
param *.被控主机[*].numApps 1
param *.被控主机[*].app[0].typename "\"PingApp\""
param *.被控主机[*].app[0].destAddr "\"服务器\""
param *.被控主机[*].app[0].sendInterval 5ms
param *.被控主机[*].app[0].startTime 3s
param *.被控主机[*].app[0].stopTime 10s
param *.正常客户[*].numApps 1
param *.正常客户[*].app[0].typename "\"TcpBasicClientApp\""
param *.正常客户[*].app[0].connectAddress "\"服务器\""
param *.正常客户[*].app[0].connectPort 1000
param *.正常客户[*].app[0].thinkTime 0s
param *.正常客户[*].app[0].idleInterval 0s
param *.正常客户[*].app[0].numRequestsPerSession 10
param *.正常客户[*].app[0].requestLength 1000B
param *.正常客户[*].app[0].replyLength 1000B
param *.服务器.numApps 1
param *.服务器.app[0].typename "\"TcpGenericServerApp\""
param *.服务器.app[0].localPort 1000
param **.tcp.mss 1456
param *.visualizer.*.packetDropVisualizer.displayPacketDrops true
param *.visualizer.*.packetDropVisualizer.labelFormat "\"name: %n; reason: %r;\""
param *.visualizer.*.packetDropVisualizer.fadeOutTime 3s
param *.正常客户[1..].eth[0].csmacdSupport true
param *.被控主机[2..].eth[0].csmacdSupport true
param *.服务器.eth[0].csmacdSupport true
param *.路由器[1..2].eth[0].csmacdSupport true
param *.正常客户[1..].eth[0].mac.duplexMode false
param *.被控主机[2..].eth[0].mac.duplexMode false
param *.服务器.eth[0].mac.duplexMode false
param *.路由器[1..2].eth[0].mac.duplexMode false

vector 0 Ping攻击.路由器[0].ppp[0].ppp transmissionState:vector ETV
attr interpolationmode sample-hold
attr source transmissionStateChanged
attr title "tx state, vector"
vector 1 Ping攻击.路由器[0].ppp[1].ppp transmissionState:vector ETV
attr interpolationmode sample-hold
attr source transmissionStateChanged
attr title "tx state, vector"
vector 2 Ping攻击.路由器[1].ppp[0].ppp transmissionState:vector ETV
attr interpolationmode sample-hold
attr source transmissionStateChanged
attr title "tx state, vector"
vector 3 Ping攻击.路由器[1].ppp[1].ppp transmissionState:vector ETV
attr interpolationmode sample-hold
attr source transmissionStateChanged
attr title "tx state, vector"
vector 4 Ping攻击.路由器[2].ppp[0].ppp transmissionState:vector ETV
attr interpolationmode sample-hold
attr source transmissionStateChanged
attr title "tx state, vector"
vector 5 Ping攻击.路由器[2].ppp[1].ppp transmissionState:vector ETV
attr interpolationmode sample-hold
attr source transmissionStateChanged
attr title "tx state, vector"
vector 6 Ping攻击.正常客户[0].app[0] numActiveSessions:vector ETV
attr interpolationmode sample-hold
attr source sum(connect)
attr title "number of active sessions, vector"
vector 7 Ping攻击.正常客户[1].app[0] numActiveSessions:vector ETV
attr interpolationmode sample-hold
attr source sum(connect)
attr title "number of active sessions, vector"
vector 8 Ping攻击.正常客户[2].app[0] numActiveSessions:vector ETV
attr interpolationmode sample-hold
attr source sum(connect)
attr title "number of active sessions, vector"
vector 9 Ping攻击.正常客户[0].tcp.conn-16 tcpRcvQueueBytes:vector ETV
attr interpolationmode sample-hold
vector 10 Ping攻击.正常客户[0].tcp.conn-16 rcvAdv:vector ETV
attr interpolationmode sample-hold
vector 11 Ping攻击.正常客户[0].tcp.conn-16 rcvWnd:vector ETV
attr interpolationmode sample-hold
vector 12 Ping攻击.正常客户[0].tcp.conn-16 sndAck:vector ETV
attr interpolationmode sample-hold
vector 13 Ping攻击.正常客户[1].tcp.conn-17 tcpRcvQueueBytes:vector ETV
attr interpolationmode sample-hold
vector 14 Ping攻击.正常客户[1].tcp.conn-17 rcvAdv:vector ETV
attr interpolationmode sample-hold
vector 15 Ping攻击.正常客户[1].tcp.conn-17 rcvWnd:vector ETV
attr interpolationmode sample-hold
vector 16 Ping攻击.正常客户[1].tcp.conn-17 sndAck:vector ETV
attr interpolationmode sample-hold
vector 17 Ping攻击.正常客户[2].tcp.conn-18 tcpRcvQueueBytes:vector ETV
attr interpolationmode sample-hold
vector 18 Ping攻击.正常客户[2].tcp.conn-18 rcvAdv:vector ETV
attr interpolationmode sample-hold
vector 19 Ping攻击.正常客户[2].tcp.conn-18 rcvWnd:vector ETV
attr interpolationmode sample-hold
vector 20 Ping攻击.正常客户[2].tcp.conn-18 sndAck:vector ETV
attr interpolationmode sample-hold
vector 21 Ping攻击.正常客户[0].ipv4.arp arpRequestSent:vector(packetBytes) ETV
attr source arpRequestSent
attr title "ARP request sent, vector(packetBytes)"
vector 22 Ping攻击.正常客户[1].ipv4.arp arpRequestSent:vector(packetBytes) ETV
attr source arpRequestSent
attr title "ARP request sent, vector(packetBytes)"
vector 23 Ping攻击.正常客户[2].ipv4.arp arpRequestSent:vector(packetBytes) ETV
attr source arpRequestSent
attr title "ARP request sent, vector(packetBytes)"
vector 24 Ping攻击.正常客户[0].eth[0].encap encapPk:vector(packetBytes) ETV
attr interpolationmode none
attr source encapPk
attr title "packets encapsulated, vector(packetBytes)"
vector 25 Ping攻击.正常客户[1].eth[0].encap encapPk:vector(packetBytes) ETV
attr interpolationmode none
attr source encapPk
attr title "packets encapsulated, vector(packetBytes)"
vector 26 Ping攻击.正常客户[2].eth[0].encap encapPk:vector(packetBytes) ETV
attr interpolationmode none
attr source encapPk
attr title "packets encapsulated, vector(packetBytes)"
vector 27 Ping攻击.正常客户[0].eth[0].mac packetReceivedFromUpper:vector(packetBytes) ETV
attr interpolationmode none
attr source packetReceivedFromUpper
attr title "packet bytes from higher layer, vector(packetBytes)"
vector 28 Ping攻击.正常客户[0].eth[0].mac.queue packetPushed:vector(packetBytes) ETV
attr interpolationmode none
attr title "packet pushed, vector(packetBytes)"
vector 29 Ping攻击.正常客户[0].eth[0].mac.queue queueLength:vector ETV
attr interpolationmode sample-hold
attr source "count(packetPushed) - count(packetPopped) - count(packetRemoved) - count(packetDropped)"
attr title "queue length, vector"
vector 30 Ping攻击.正常客户[0].eth[0].mac.queue packetPopped:vector(packetBytes) ETV
attr interpolationmode none
attr title "packet popped, vector(packetBytes)"
vector 31 Ping攻击.正常客户[0].eth[0].mac.queue queueingTime:vector ETV
attr interpolationmode none
attr source queueingTime(packetPopped)
attr title "queueing times, vector"
attr unit s
vector 32 Ping攻击.正常客户[1].eth[0].mac packetReceivedFromUpper:vector(packetBytes) ETV
attr interpolationmode none
attr source packetReceivedFromUpper
attr title "packet bytes from higher layer, vector(packetBytes)"
vector 33 Ping攻击.正常客户[1].eth[0].mac.queue packetPushed:vector(packetBytes) ETV
attr interpolationmode none
attr title "packet pushed, vector(packetBytes)"
vector 34 Ping攻击.正常客户[1].eth[0].mac.queue queueLength:vector ETV
attr interpolationmode sample-hold
attr source "count(packetPushed) - count(packetPopped) - count(packetRemoved) - count(packetDropped)"
attr title "queue length, vector"
vector 35 Ping攻击.正常客户[1].eth[0].mac.queue packetPopped:vector(packetBytes) ETV
attr interpolationmode none
attr title "packet popped, vector(packetBytes)"
vector 36 Ping攻击.正常客户[1].eth[0].mac.queue queueingTime:vector ETV
attr interpolationmode none
attr source queueingTime(packetPopped)
attr title "queueing times, vector"
attr unit s
vector 37 Ping攻击.正常客户[2].eth[0].mac packetReceivedFromUpper:vector(packetBytes) ETV
attr interpolationmode none
attr source packetReceivedFromUpper
attr title "packet bytes from higher layer, vector(packetBytes)"
vector 38 Ping攻击.正常客户[2].eth[0].mac.queue packetPushed:vector(packetBytes) ETV
attr interpolationmode none
attr title "packet pushed, vector(packetBytes)"
vector 39 Ping攻击.正常客户[2].eth[0].mac.queue queueLength:vector ETV
attr interpolationmode sample-hold
attr source "count(packetPushed) - count(packetPopped) - count(packetRemoved) - count(packetDropped)"
attr title "queue length, vector"
vector 40 Ping攻击.正常客户[2].eth[0].mac.queue packetPopped:vector(packetBytes) ETV
attr interpolationmode none
attr title "packet popped, vector(packetBytes)"
vector 41 Ping攻击.正常客户[2].eth[0].mac.queue queueingTime:vector ETV
attr interpolationmode none
attr source queueingTime(packetPopped)
attr title "queueing times, vector"
attr unit s
vector 42 Ping攻击.正常客户[0].eth[0].mac txPk:vector(packetBytes) ETV
attr interpolationmode none
attr source packetSentToLower
attr title "packets transmitted, vector(packetBytes)"
vector 43 Ping攻击.正常客户[1].eth[0].mac txPk:vector(packetBytes) ETV
attr interpolationmode none
attr source packetSentToLower
attr title "packets transmitted, vector(packetBytes)"
vector 44 Ping攻击.正常客户[2].eth[0].mac txPk:vector(packetBytes) ETV
attr interpolationmode none
attr source packetSentToLower
attr title "packets transmitted, vector(packetBytes)"
vector 45 Ping攻击.交换机.eth[1].mac rxPkOk:vector(packetBytes) ETV
attr interpolationmode none
attr source rxPkOk
attr title "packets received OK, vector(packetBytes)"
vector 46 Ping攻击.交换机.eth[1].mac passedUpPk:vector(packetBytes) ETV
attr interpolationmode none
attr source packetSentToUpper
attr title "packets passed to higher layer, vector(packetBytes)"
vector 47 Ping攻击.交换机.eth[0].mac packetReceivedFromUpper:vector(packetBytes) ETV
attr interpolationmode none
attr source packetReceivedFromUpper
attr title "packet bytes from higher layer, vector(packetBytes)"
vector 48 Ping攻击.交换机.eth[0].mac.queue packetPushed:vector(packetBytes) ETV
attr interpolationmode none
attr title "packet pushed, vector(packetBytes)"
vector 49 Ping攻击.交换机.eth[0].mac.queue queueLength:vector ETV
attr interpolationmode sample-hold
attr source "count(packetPushed) - count(packetPopped) - count(packetRemoved) - count(packetDropped)"
attr title "queue length, vector"
vector 50 Ping攻击.交换机.eth[0].mac.queue packetPopped:vector(packetBytes) ETV
attr interpolationmode none
attr title "packet popped, vector(packetBytes)"
vector 51 Ping攻击.交换机.eth[0].mac.queue queueingTime:vector ETV
attr interpolationmode none
attr source queueingTime(packetPopped)
attr title "queueing times, vector"
attr unit s
vector 52 Ping攻击.交换机.eth[2].mac packetReceivedFromUpper:vector(packetBytes) ETV
attr interpolationmode none
attr source packetReceivedFromUpper
attr title "packet bytes from higher layer, vector(packetBytes)"
vector 53 Ping攻击.交换机.eth[2].mac.queue packetPushed:vector(packetBytes) ETV
attr interpolationmode none
attr title "packet pushed, vector(packetBytes)"
vector 54 Ping攻击.交换机.eth[2].mac.queue queueLength:vector ETV
attr interpolationmode sample-hold
attr source "count(packetPushed) - count(packetPopped) - count(packetRemoved) - count(packetDropped)"
attr title "queue length, vector"
vector 55 Ping攻击.交换机.eth[2].mac.queue packetPopped:vector(packetBytes) ETV
attr interpolationmode none
attr title "packet popped, vector(packetBytes)"
vector 56 Ping攻击.交换机.eth[2].mac.queue queueingTime:vector ETV
attr interpolationmode none
attr source queueingTime(packetPopped)
attr title "queueing times, vector"
attr unit s
vector 57 Ping攻击.交换机.eth[3].mac packetReceivedFromUpper:vector(packetBytes) ETV
attr interpolationmode none
attr source packetReceivedFromUpper
attr title "packet bytes from higher layer, vector(packetBytes)"
vector 58 Ping攻击.交换机.eth[3].mac.queue packetPushed:vector(packetBytes) ETV
attr interpolationmode none
attr title "packet pushed, vector(packetBytes)"
vector 59 Ping攻击.交换机.eth[3].mac.queue queueLength:vector ETV
attr interpolationmode sample-hold
attr source "count(packetPushed) - count(packetPopped) - count(packetRemoved) - count(packetDropped)"
attr title "queue length, vector"
vector 60 Ping攻击.交换机.eth[3].mac.queue packetPopped:vector(packetBytes) ETV
attr interpolationmode none
attr title "packet popped, vector(packetBytes)"
vector 61 Ping攻击.交换机.eth[3].mac.queue queueingTime:vector ETV
attr interpolationmode none
attr source queueingTime(packetPopped)
attr title "queueing times, vector"
attr unit s
vector 62 Ping攻击.路由器[1].eth[0].mac rxPkOk:vector(packetBytes) ETV
attr interpolationmode none
attr source rxPkOk
attr title "packets received OK, vector(packetBytes)"
vector 63 Ping攻击.路由器[1].eth[0].mac passedUpPk:vector(packetBytes) ETV
attr interpolationmode none
attr source packetSentToUpper
attr title "packets passed to higher layer, vector(packetBytes)"
vector 64 Ping攻击.被控主机[2].eth[0].mac rxPkOk:vector(packetBytes) ETV
attr interpolationmode none
attr source rxPkOk
attr title "packets received OK, vector(packetBytes)"
vector 65 Ping攻击.被控主机[2].eth[0].mac passedUpPk:vector(packetBytes) ETV
attr interpolationmode none
attr source packetSentToUpper
attr title "packets passed to higher layer, vector(packetBytes)"
vector 66 Ping攻击.服务器.eth[0].mac rxPkOk:vector(packetBytes) ETV
attr interpolationmode none
attr source rxPkOk
attr title "packets received OK, vector(packetBytes)"
vector 67 Ping攻击.服务器.eth[0].mac passedUpPk:vector(packetBytes) ETV
attr interpolationmode none
attr source packetSentToUpper
attr title "packets passed to higher layer, vector(packetBytes)"
vector 68 Ping攻击.被控主机[4].eth[0].mac rxPkOk:vector(packetBytes) ETV
attr interpolationmode none
attr source rxPkOk
attr title "packets received OK, vector(packetBytes)"
vector 69 Ping攻击.被控主机[4].eth[0].mac passedUpPk:vector(packetBytes) ETV
attr interpolationmode none
attr source packetSentToUpper
attr title "packets passed to higher layer, vector(packetBytes)"
vector 70 Ping攻击.路由器[1].eth[0].encap decapPk:vector(packetBytes) ETV
attr interpolationmode none
attr source decapPk
attr title "packets decapsulated, vector(packetBytes)"
vector 71 Ping攻击.被控主机[2].eth[0].encap decapPk:vector(packetBytes) ETV
attr interpolationmode none
attr source decapPk
attr title "packets decapsulated, vector(packetBytes)"
vector 72 Ping攻击.服务器.eth[0].encap decapPk:vector(packetBytes) ETV
attr interpolationmode none
attr source decapPk
attr title "packets decapsulated, vector(packetBytes)"
vector 73 Ping攻击.被控主机[4].eth[0].encap decapPk:vector(packetBytes) ETV
attr interpolationmode none
attr source decapPk
attr title "packets decapsulated, vector(packetBytes)"
vector 74 Ping攻击.路由器[1].ipv4.arp arpReplySent:vector(packetBytes) ETV
attr source arpReplySent
attr title "ARP replies sent, vector(packetBytes)"
vector 75 Ping攻击.服务器.ipv4.arp arpReplySent:vector(packetBytes) ETV
attr source arpReplySent
attr title "ARP replies sent, vector(packetBytes)"
vector 76 Ping攻击.路由器[1].eth[0].encap encapPk:vector(packetBytes) ETV
attr interpolationmode none
attr source encapPk
attr title "packets encapsulated, vector(packetBytes)"
vector 77 Ping攻击.服务器.eth[0].encap encapPk:vector(packetBytes) ETV
attr interpolationmode none
attr source encapPk
attr title "packets encapsulated, vector(packetBytes)"
vector 78 Ping攻击.路由器[1].eth[0].mac packetReceivedFromUpper:vector(packetBytes) ETV
attr interpolationmode none
attr source packetReceivedFromUpper
attr title "packet bytes from higher layer, vector(packetBytes)"
vector 79 Ping攻击.路由器[1].eth[0].mac.queue packetPushed:vector(packetBytes) ETV
attr interpolationmode none
attr title "packet pushed, vector(packetBytes)"
vector 80 Ping攻击.路由器[1].eth[0].mac.queue queueLength:vector ETV
attr interpolationmode sample-hold
attr source "count(packetPushed) - count(packetPopped) - count(packetRemoved) - count(packetDropped)"
attr title "queue length, vector"
vector 81 Ping攻击.路由器[1].eth[0].mac.queue packetPopped:vector(packetBytes) ETV
attr interpolationmode none
attr title "packet popped, vector(packetBytes)"
vector 82 Ping攻击.路由器[1].eth[0].mac.queue queueingTime:vector ETV
attr interpolationmode none
attr source queueingTime(packetPopped)
attr title "queueing times, vector"
attr unit s
vector 83 Ping攻击.服务器.eth[0].mac packetReceivedFromUpper:vector(packetBytes) ETV
attr interpolationmode none
attr source packetReceivedFromUpper
attr title "packet bytes from higher layer, vector(packetBytes)"
vector 84 Ping攻击.服务器.eth[0].mac.queue packetPushed:vector(packetBytes) ETV
attr interpolationmode none
attr title "packet pushed, vector(packetBytes)"
vector 85 Ping攻击.服务器.eth[0].mac.queue queueLength:vector ETV
attr interpolationmode sample-hold
attr source "count(packetPushed) - count(packetPopped) - count(packetRemoved) - count(packetDropped)"
attr title "queue length, vector"
vector 86 Ping攻击.服务器.eth[0].mac.queue packetPopped:vector(packetBytes) ETV
attr interpolationmode none
attr title "packet popped, vector(packetBytes)"
vector 87 Ping攻击.服务器.eth[0].mac.queue queueingTime:vector ETV
attr interpolationmode none
attr source queueingTime(packetPopped)
attr title "queueing times, vector"
attr unit s
vector 88 Ping攻击.被控主机[3].eth[0].mac rxPkOk:vector(packetBytes) ETV
attr interpolationmode none
attr source rxPkOk
attr title "packets received OK, vector(packetBytes)"
vector 89 Ping攻击.被控主机[3].eth[0].mac passedUpPk:vector(packetBytes) ETV
attr interpolationmode none
attr source packetSentToUpper
attr title "packets passed to higher layer, vector(packetBytes)"
vector 90 Ping攻击.路由器[2].eth[0].mac rxPkOk:vector(packetBytes) ETV
attr interpolationmode none
attr source rxPkOk
attr title "packets received OK, vector(packetBytes)"
vector 91 Ping攻击.路由器[2].eth[0].mac passedUpPk:vector(packetBytes) ETV
attr interpolationmode none
attr source packetSentToUpper
attr title "packets passed to higher layer, vector(packetBytes)"
vector 92 Ping攻击.被控主机[5].eth[0].mac rxPkOk:vector(packetBytes) ETV
attr interpolationmode none
attr source rxPkOk
attr title "packets received OK, vector(packetBytes)"
vector 93 Ping攻击.被控主机[5].eth[0].mac passedUpPk:vector(packetBytes) ETV
attr interpolationmode none
attr source packetSentToUpper
attr title "packets passed to higher layer, vector(packetBytes)"
vector 94 Ping攻击.被控主机[3].eth[0].encap decapPk:vector(packetBytes) ETV
attr interpolationmode none
attr source decapPk
attr title "packets decapsulated, vector(packetBytes)"
vector 95 Ping攻击.路由器[2].eth[0].encap decapPk:vector(packetBytes) ETV
attr interpolationmode none
attr source decapPk
attr title "packets decapsulated, vector(packetBytes)"
vector 96 Ping攻击.被控主机[5].eth[0].encap decapPk:vector(packetBytes) ETV
attr interpolationmode none
attr source decapPk
attr title "packets decapsulated, vector(packetBytes)"
vector 97 Ping攻击.交换机.eth[0].mac txPk:vector(packetBytes) ETV
attr interpolationmode none
attr source packetSentToLower
attr title "packets transmitted, vector(packetBytes)"
vector 98 Ping攻击.交换机.eth[2].mac txPk:vector(packetBytes) ETV
attr interpolationmode none
attr source packetSentToLower
attr title "packets transmitted, vector(packetBytes)"
vector 99 Ping攻击.交换机.eth[3].mac txPk:vector(packetBytes) ETV
attr interpolationmode none
attr source packetSentToLower
attr title "packets transmitted, vector(packetBytes)"
vector 100 Ping攻击.路由器[0].eth[0].mac rxPkOk:vector(packetBytes) ETV
attr interpolationmode none
attr source rxPkOk
attr title "packets received OK, vector(packetBytes)"
vector 101 Ping攻击.路由器[0].eth[0].mac passedUpPk:vector(packetBytes) ETV
attr interpolationmode none
attr source packetSentToUpper
attr title "packets passed to higher layer, vector(packetBytes)"
vector 102 Ping攻击.被控主机[0].eth[0].mac rxPkOk:vector(packetBytes) ETV
attr interpolationmode none
attr source rxPkOk
attr title "packets received OK, vector(packetBytes)"
vector 103 Ping攻击.被控主机[0].eth[0].mac passedUpPk:vector(packetBytes) ETV
attr interpolationmode none
attr source packetSentToUpper
attr title "packets passed to higher layer, vector(packetBytes)"
vector 104 Ping攻击.被控主机[1].eth[0].mac rxPkOk:vector(packetBytes) ETV
attr interpolationmode none
attr source rxPkOk
attr title "packets received OK, vector(packetBytes)"
vector 105 Ping攻击.被控主机[1].eth[0].mac passedUpPk:vector(packetBytes) ETV
attr interpolationmode none
attr source packetSentToUpper
attr title "packets passed to higher layer, vector(packetBytes)"
vector 106 Ping攻击.路由器[0].eth[0].encap decapPk:vector(packetBytes) ETV
attr interpolationmode none
attr source decapPk
attr title "packets decapsulated, vector(packetBytes)"
vector 107 Ping攻击.被控主机[0].eth[0].encap decapPk:vector(packetBytes) ETV
attr interpolationmode none
attr source decapPk
attr title "packets decapsulated, vector(packetBytes)"
vector 108 Ping攻击.被控主机[1].eth[0].encap decapPk:vector(packetBytes) ETV
attr interpolationmode none
attr source decapPk
attr title "packets decapsulated, vector(packetBytes)"
vector 109 Ping攻击.路由器[0].ipv4.arp arpReplySent:vector(packetBytes) ETV
attr source arpReplySent
attr title "ARP replies sent, vector(packetBytes)"
vector 110 Ping攻击.路由器[0].eth[0].encap encapPk:vector(packetBytes) ETV
attr interpolationmode none
attr source encapPk
attr title "packets encapsulated, vector(packetBytes)"
vector 111 Ping攻击.路由器[0].eth[0].mac packetReceivedFromUpper:vector(packetBytes) ETV
attr interpolationmode none
attr source packetReceivedFromUpper
attr title "packet bytes from higher layer, vector(packetBytes)"
vector 112 Ping攻击.路由器[0].eth[0].mac.queue packetPushed:vector(packetBytes) ETV
attr interpolationmode none
attr title "packet pushed, vector(packetBytes)"
vector 113 Ping攻击.路由器[0].eth[0].mac.queue queueLength:vector ETV
attr interpolationmode sample-hold
attr source "count(packetPushed) - count(packetPopped) - count(packetRemoved) - count(packetDropped)"
attr title "queue length, vector"
vector 114 Ping攻击.路由器[0].eth[0].mac.queue packetPopped:vector(packetBytes) ETV
attr interpolationmode none
attr title "packet popped, vector(packetBytes)"
vector 115 Ping攻击.路由器[0].eth[0].mac.queue queueingTime:vector ETV
attr interpolationmode none
attr source queueingTime(packetPopped)
attr title "queueing times, vector"
attr unit s
vector 116 Ping攻击.路由器[1].eth[0].mac txPk:vector(packetBytes) ETV
attr interpolationmode none
attr source packetSentToLower
attr title "packets transmitted, vector(packetBytes)"
vector 117 Ping攻击.服务器.eth[0].mac txPk:vector(packetBytes) ETV
attr interpolationmode none
attr source packetSentToLower
attr title "packets transmitted, vector(packetBytes)"
vector 118 Ping攻击.正常客户[1].eth[0].mac rxPkOk:vector(packetBytes) ETV
attr interpolationmode none
attr source rxPkOk
attr title "packets received OK, vector(packetBytes)"
vector 119 Ping攻击.正常客户[1].eth[0].mac passedUpPk:vector(packetBytes) ETV
attr interpolationmode none
attr source packetSentToUpper
attr title "packets passed to higher layer, vector(packetBytes)"
vector 120 Ping攻击.路由器[2].eth[0].mac packetDropNotAddressedToUs:vector(packetBytes) ETV
attr interpolationmode none
attr source packetDropReasonIsNotAddressedToUs(packetDropped)
attr title "packet drop: not addressed to us, vector(packetBytes)"
vector 121 Ping攻击.正常客户[2].eth[0].mac rxPkOk:vector(packetBytes) ETV
attr interpolationmode none
attr source rxPkOk
attr title "packets received OK, vector(packetBytes)"
vector 122 Ping攻击.正常客户[2].eth[0].mac passedUpPk:vector(packetBytes) ETV
attr interpolationmode none
attr source packetSentToUpper
attr title "packets passed to higher layer, vector(packetBytes)"
vector 123 Ping攻击.正常客户[1].eth[0].encap decapPk:vector(packetBytes) ETV
attr interpolationmode none
attr source decapPk
attr title "packets decapsulated, vector(packetBytes)"
vector 124 Ping攻击.正常客户[2].eth[0].encap decapPk:vector(packetBytes) ETV
attr interpolationmode none
attr source decapPk
attr title "packets decapsulated, vector(packetBytes)"
vector 125 Ping攻击.被控主机[2].eth[0].mac packetDropNotAddressedToUs:vector(packetBytes) ETV
attr interpolationmode none
attr source packetDropReasonIsNotAddressedToUs(packetDropped)
attr title "packet drop: not addressed to us, vector(packetBytes)"
vector 126 Ping攻击.被控主机[4].eth[0].mac packetDropNotAddressedToUs:vector(packetBytes) ETV
attr interpolationmode none
attr source packetDropReasonIsNotAddressedToUs(packetDropped)
attr title "packet drop: not addressed to us, vector(packetBytes)"
vector 127 Ping攻击.被控主机[3].eth[0].mac packetDropNotAddressedToUs:vector(packetBytes) ETV
attr interpolationmode none
attr source packetDropReasonIsNotAddressedToUs(packetDropped)
attr title "packet drop: not addressed to us, vector(packetBytes)"
vector 128 Ping攻击.被控主机[5].eth[0].mac packetDropNotAddressedToUs:vector(packetBytes) ETV
attr interpolationmode none
attr source packetDropReasonIsNotAddressedToUs(packetDropped)
attr title "packet drop: not addressed to us, vector(packetBytes)"
vector 129 Ping攻击.路由器[0].eth[0].mac txPk:vector(packetBytes) ETV
attr interpolationmode none
attr source packetSentToLower
attr title "packets transmitted, vector(packetBytes)"
vector 130 Ping攻击.交换机.eth[0].mac rxPkOk:vector(packetBytes) ETV
attr interpolationmode none
attr source rxPkOk
attr title "packets received OK, vector(packetBytes)"
vector 131 Ping攻击.交换机.eth[0].mac passedUpPk:vector(packetBytes) ETV
attr interpolationmode none
attr source packetSentToUpper
attr title "packets passed to higher layer, vector(packetBytes)"
vector 132 Ping攻击.交换机.eth[1].mac packetReceivedFromUpper:vector(packetBytes) ETV
attr interpolationmode none
attr source packetReceivedFromUpper
attr title "packet bytes from higher layer, vector(packetBytes)"
vector 133 Ping攻击.交换机.eth[1].mac.queue packetPushed:vector(packetBytes) ETV
attr interpolationmode none
attr title "packet pushed, vector(packetBytes)"
vector 134 Ping攻击.交换机.eth[1].mac.queue queueLength:vector ETV
attr interpolationmode sample-hold
attr source "count(packetPushed) - count(packetPopped) - count(packetRemoved) - count(packetDropped)"
attr title "queue length, vector"
vector 135 Ping攻击.交换机.eth[1].mac.queue packetPopped:vector(packetBytes) ETV
attr interpolationmode none
attr title "packet popped, vector(packetBytes)"
vector 136 Ping攻击.交换机.eth[1].mac.queue queueingTime:vector ETV
attr interpolationmode none
attr source queueingTime(packetPopped)
attr title "queueing times, vector"
attr unit s
vector 137 Ping攻击.路由器[1].ppp[1].ppp rcvdPkFromHl:vector(packetBytes) ETV
attr interpolationmode none
attr source packetReceivedFromUpper
attr title "packets received from higher layer, vector(packetBytes)"
vector 138 Ping攻击.路由器[1].ppp[1].ppp.queue packetPushed:vector(packetBytes) ETV
attr interpolationmode none
attr title "packet pushed, vector(packetBytes)"
vector 139 Ping攻击.路由器[1].ppp[1].ppp.queue queueLength:vector ETV
attr interpolationmode sample-hold
attr source "count(packetPushed) - count(packetPopped) - count(packetRemoved) - count(packetDropped)"
attr title "queue length, vector"
vector 140 Ping攻击.路由器[1].ppp[1].ppp.queue packetPopped:vector(packetBytes) ETV
attr interpolationmode none
attr title "packet popped, vector(packetBytes)"
vector 141 Ping攻击.路由器[1].ppp[1].ppp.queue queueingTime:vector ETV
attr interpolationmode none
attr source queueingTime(packetPopped)
attr title "queueing times, vector"
attr unit s
vector 142 Ping攻击.路由器[1].ppp[1].ppp txPk:vector(packetBytes) ETV
attr interpolationmode none
attr source packetSentToLower
attr title "packets transmitted, vector(packetBytes)"
vector 143 Ping攻击.服务器.tcp.conn-3 rcvSeq:vector ETV
attr interpolationmode sample-hold
vector 144 Ping攻击.服务器.tcp.conn-3 rcvAck:vector ETV
attr interpolationmode sample-hold
vector 145 Ping攻击.服务器.tcp.conn-19 rcvAdv:vector ETV
attr interpolationmode sample-hold
vector 146 Ping攻击.服务器.tcp.conn-19 sndWnd:vector ETV
attr interpolationmode sample-hold
vector 147 Ping攻击.服务器.tcp.conn-19 tcpRcvQueueBytes:vector ETV
attr interpolationmode sample-hold
vector 148 Ping攻击.服务器.tcp.conn-19 rcvWnd:vector ETV
attr interpolationmode sample-hold
vector 149 Ping攻击.服务器.tcp.conn-19 sndAck:vector ETV
attr interpolationmode sample-hold
vector 150 Ping攻击.交换机.eth[1].mac txPk:vector(packetBytes) ETV
attr interpolationmode none
attr source packetSentToLower
attr title "packets transmitted, vector(packetBytes)"
vector 151 Ping攻击.正常客户[0].eth[0].mac rxPkOk:vector(packetBytes) ETV
attr interpolationmode none
attr source rxPkOk
attr title "packets received OK, vector(packetBytes)"
vector 152 Ping攻击.正常客户[0].eth[0].mac passedUpPk:vector(packetBytes) ETV
attr interpolationmode none
attr source packetSentToUpper
attr title "packets passed to higher layer, vector(packetBytes)"
vector 153 Ping攻击.正常客户[0].eth[0].encap decapPk:vector(packetBytes) ETV
attr interpolationmode none
attr source decapPk
attr title "packets decapsulated, vector(packetBytes)"
vector 154 Ping攻击.正常客户[2].tcp.conn-18 rcvSeq:vector ETV
attr interpolationmode sample-hold
vector 155 Ping攻击.正常客户[2].tcp.conn-18 rcvAck:vector ETV
attr interpolationmode sample-hold
vector 156 Ping攻击.正常客户[2].tcp.conn-18 sndWnd:vector ETV
attr interpolationmode sample-hold
vector 157 Ping攻击.正常客户[2].app[0] packetSent:vector(packetBytes) ETV
attr interpolationmode none
attr source packetSent
attr title "packets sent, vector(packetBytes)"
vector 158 Ping攻击.正常客户[2].tcp.conn-18 sndNxt:vector ETV
attr interpolationmode sample-hold
vector 159 Ping攻击.正常客户[2].tcp.conn-18 unacked:vector ETV
attr interpolationmode sample-hold
vector 160 Ping攻击.路由器[2].ppp[0].ppp rxPkOk:vector(packetBytes) ETV
attr interpolationmode none
attr source rxPkOk
attr title "packets received OK, vector(packetBytes)"
vector 161 Ping攻击.路由器[2].ppp[0].ppp passedUpPk:vector(packetBytes) ETV
attr interpolationmode none
attr source packetSentToUpper
attr title "packets passed to higher layer, vector(packetBytes)"
vector 162 Ping攻击.路由器[2].ipv4.arp arpRequestSent:vector(packetBytes) ETV
attr source arpRequestSent
attr title "ARP request sent, vector(packetBytes)"
vector 163 Ping攻击.路由器[2].eth[0].encap encapPk:vector(packetBytes) ETV
attr interpolationmode none
attr source encapPk
attr title "packets encapsulated, vector(packetBytes)"
vector 164 Ping攻击.路由器[2].eth[0].mac packetReceivedFromUpper:vector(packetBytes) ETV
attr interpolationmode none
attr source packetReceivedFromUpper
attr title "packet bytes from higher layer, vector(packetBytes)"
vector 165 Ping攻击.路由器[2].eth[0].mac.queue packetPushed:vector(packetBytes) ETV
attr interpolationmode none
attr title "packet pushed, vector(packetBytes)"
vector 166 Ping攻击.路由器[2].eth[0].mac.queue queueLength:vector ETV
attr interpolationmode sample-hold
attr source "count(packetPushed) - count(packetPopped) - count(packetRemoved) - count(packetDropped)"
attr title "queue length, vector"
vector 167 Ping攻击.路由器[2].eth[0].mac.queue packetPopped:vector(packetBytes) ETV
attr interpolationmode none
attr title "packet popped, vector(packetBytes)"
vector 168 Ping攻击.路由器[2].eth[0].mac.queue queueingTime:vector ETV
attr interpolationmode none
attr source queueingTime(packetPopped)
attr title "queueing times, vector"
attr unit s
vector 169 Ping攻击.服务器.tcp.conn-19 rcvSeq:vector ETV
attr interpolationmode sample-hold
vector 170 Ping攻击.服务器.tcp.conn-19 rcvAck:vector ETV
attr interpolationmode sample-hold
vector 171 Ping攻击.服务器.tcp.conn-19 unacked:vector ETV
attr interpolationmode sample-hold
vector 172 Ping攻击.路由器[2].eth[0].mac collision:vector ETV
attr interpolationmode none
attr title "collision, vector"
vector 173 Ping攻击.服务器.eth[0].mac collision:vector ETV
attr interpolationmode none
attr title "collision, vector"
vector 174 Ping攻击.正常客户[2].eth[0].mac collision:vector ETV
attr interpolationmode none
attr title "collision, vector"
vector 175 Ping攻击.被控主机[4].eth[0].mac collision:vector ETV
attr interpolationmode none
attr title "collision, vector"
vector 176 Ping攻击.被控主机[5].eth[0].mac collision:vector ETV
attr interpolationmode none
attr title "collision, vector"
vector 177 Ping攻击.路由器[2].eth[0].mac backoffSlotsGenerated:vector ETV
attr interpolationmode none
attr title "backoff, vector"
vector 178 Ping攻击.正常客户[2].eth[0].mac backoffSlotsGenerated:vector ETV
attr interpolationmode none
attr title "backoff, vector"
vector 179 Ping攻击.路由器[0].ppp[1].ppp rcvdPkFromHl:vector(packetBytes) ETV
attr interpolationmode none
attr source packetReceivedFromUpper
attr title "packets received from higher layer, vector(packetBytes)"
vector 180 Ping攻击.路由器[0].ppp[1].ppp.queue packetPushed:vector(packetBytes) ETV
attr interpolationmode none
attr title "packet pushed, vector(packetBytes)"
vector 181 Ping攻击.路由器[0].ppp[1].ppp.queue queueLength:vector ETV
attr interpolationmode sample-hold
attr source "count(packetPushed) - count(packetPopped) - count(packetRemoved) - count(packetDropped)"
attr title "queue length, vector"
vector 182 Ping攻击.路由器[0].ppp[1].ppp.queue packetPopped:vector(packetBytes) ETV
attr interpolationmode none
attr title "packet popped, vector(packetBytes)"
vector 183 Ping攻击.路由器[0].ppp[1].ppp.queue queueingTime:vector ETV
attr interpolationmode none
attr source queueingTime(packetPopped)
attr title "queueing times, vector"
attr unit s
vector 184 Ping攻击.路由器[0].ppp[1].ppp txPk:vector(packetBytes) ETV
attr interpolationmode none
attr source packetSentToLower
attr title "packets transmitted, vector(packetBytes)"
vector 185 Ping攻击.路由器[2].eth[0].mac txPk:vector(packetBytes) ETV
attr interpolationmode none
attr source packetSentToLower
attr title "packets transmitted, vector(packetBytes)"
vector 186 Ping攻击.服务器.eth[0].mac backoffSlotsGenerated:vector ETV
attr interpolationmode none
attr title "backoff, vector"
vector 187 Ping攻击.路由器[2].ppp[1].ppp rxPkOk:vector(packetBytes) ETV
attr interpolationmode none
attr source rxPkOk
attr title "packets received OK, vector(packetBytes)"
vector 188 Ping攻击.路由器[2].ppp[1].ppp passedUpPk:vector(packetBytes) ETV
attr interpolationmode none
attr source packetSentToUpper
attr title "packets passed to higher layer, vector(packetBytes)"
vector 189 Ping攻击.正常客户[2].eth[0].mac packetDropNotAddressedToUs:vector(packetBytes) ETV
attr interpolationmode none
attr source packetDropReasonIsNotAddressedToUs(packetDropped)
attr title "packet drop: not addressed to us, vector(packetBytes)"
vector 190 Ping攻击.服务器.tcp.conn-20 rcvAdv:vector ETV
attr interpolationmode sample-hold
vector 191 Ping攻击.服务器.tcp.conn-20 sndWnd:vector ETV
attr interpolationmode sample-hold
vector 192 Ping攻击.服务器.tcp.conn-20 tcpRcvQueueBytes:vector ETV
attr interpolationmode sample-hold
vector 193 Ping攻击.服务器.tcp.conn-20 rcvWnd:vector ETV
attr interpolationmode sample-hold
vector 194 Ping攻击.服务器.tcp.conn-20 sndAck:vector ETV
attr interpolationmode sample-hold
vector 195 Ping攻击.服务器.tcp.conn-19 dupAcks:vector ETV
attr interpolationmode sample-hold
vector 196 Ping攻击.服务器.app[0] packetReceived:vector(packetBytes) ETV
attr interpolationmode none
attr source packetReceived
attr title "packets received, vector(packetBytes)"
vector 197 Ping攻击.服务器.app[0] endToEndDelay:vector ETV
attr interpolationmode none
attr source dataAge(packetReceived)
attr title "end-to-end delay, vector"
attr unit s
vector 198 Ping攻击.服务器.app[0] packetSent:vector(packetBytes) ETV
attr interpolationmode none
attr source packetSent
attr title "packets sent, vector(packetBytes)"
vector 199 Ping攻击.服务器.tcp.conn-19 sndNxt:vector ETV
attr interpolationmode sample-hold
vector 200 Ping攻击.服务器.tcp.conn-21 rcvAdv:vector ETV
attr interpolationmode sample-hold
vector 201 Ping攻击.服务器.tcp.conn-21 sndWnd:vector ETV
attr interpolationmode sample-hold
vector 202 Ping攻击.服务器.tcp.conn-21 tcpRcvQueueBytes:vector ETV
attr interpolationmode sample-hold
vector 203 Ping攻击.服务器.tcp.conn-21 rcvWnd:vector ETV
attr interpolationmode sample-hold
vector 204 Ping攻击.服务器.tcp.conn-21 sndAck:vector ETV
attr interpolationmode sample-hold
vector 205 Ping攻击.路由器[2].ppp[0].ppp rcvdPkFromHl:vector(packetBytes) ETV
attr interpolationmode none
attr source packetReceivedFromUpper
attr title "packets received from higher layer, vector(packetBytes)"
vector 206 Ping攻击.路由器[2].ppp[0].ppp.queue packetPushed:vector(packetBytes) ETV
attr interpolationmode none
attr title "packet pushed, vector(packetBytes)"
vector 207 Ping攻击.路由器[2].ppp[0].ppp.queue queueLength:vector ETV
attr interpolationmode sample-hold
attr source "count(packetPushed) - count(packetPopped) - count(packetRemoved) - count(packetDropped)"
attr title "queue length, vector"
vector 208 Ping攻击.路由器[2].ppp[0].ppp.queue packetPopped:vector(packetBytes) ETV
attr interpolationmode none
attr title "packet popped, vector(packetBytes)"
vector 209 Ping攻击.路由器[2].ppp[0].ppp.queue queueingTime:vector ETV
attr interpolationmode none
attr source queueingTime(packetPopped)
attr title "queueing times, vector"
attr unit s
vector 210 Ping攻击.路由器[2].ppp[0].ppp txPk:vector(packetBytes) ETV
attr interpolationmode none
attr source packetSentToLower
attr title "packets transmitted, vector(packetBytes)"
vector 211 Ping攻击.正常客户[2].tcp.conn-18 rtt:vector ETV
attr interpolationmode sample-hold
vector 212 Ping攻击.正常客户[2].tcp.conn-18 srtt:vector ETV
attr interpolationmode sample-hold
vector 213 Ping攻击.正常客户[2].tcp.conn-18 rttvar:vector ETV
attr interpolationmode sample-hold
vector 214 Ping攻击.正常客户[2].tcp.conn-18 rto:vector ETV
attr interpolationmode sample-hold
vector 215 Ping攻击.正常客户[2].tcp.conn-18 cwnd:vector ETV
attr interpolationmode sample-hold
vector 216 Ping攻击.正常客户[2].tcp.conn-18 ssthresh:vector ETV
attr interpolationmode sample-hold
vector 217 Ping攻击.正常客户[2].tcp.conn-18 dupAcks:vector ETV
attr interpolationmode sample-hold
vector 218 Ping攻击.路由器[1].ppp[1].ppp rxPkOk:vector(packetBytes) ETV
attr interpolationmode none
attr source rxPkOk
attr title "packets received OK, vector(packetBytes)"
vector 219 Ping攻击.路由器[1].ppp[1].ppp passedUpPk:vector(packetBytes) ETV
attr interpolationmode none
attr source packetSentToUpper
attr title "packets passed to higher layer, vector(packetBytes)"
vector 220 Ping攻击.正常客户[1].tcp.conn-17 rcvSeq:vector ETV
attr interpolationmode sample-hold
vector 221 Ping攻击.正常客户[1].tcp.conn-17 rcvAck:vector ETV
attr interpolationmode sample-hold
vector 222 Ping攻击.正常客户[1].tcp.conn-17 sndWnd:vector ETV
attr interpolationmode sample-hold
vector 223 Ping攻击.正常客户[1].app[0] packetSent:vector(packetBytes) ETV
attr interpolationmode none
attr source packetSent
attr title "packets sent, vector(packetBytes)"
vector 224 Ping攻击.正常客户[1].tcp.conn-17 sndNxt:vector ETV
attr interpolationmode sample-hold
vector 225 Ping攻击.正常客户[1].tcp.conn-17 unacked:vector ETV
attr interpolationmode sample-hold
vector 226 Ping攻击.正常客户[2].app[0] packetReceived:vector(packetBytes) ETV
attr interpolationmode none
attr source packetReceived
attr title "packets received, vector(packetBytes)"
vector 227 Ping攻击.正常客户[2].app[0] endToEndDelay:vector ETV
attr interpolationmode none
attr source dataAge(packetReceived)
attr title "end-to-end delay, vector"
attr unit s
vector 228 Ping攻击.服务器.tcp.conn-20 rcvSeq:vector ETV
attr interpolationmode sample-hold
vector 229 Ping攻击.服务器.tcp.conn-20 rcvAck:vector ETV
attr interpolationmode sample-hold
vector 230 Ping攻击.服务器.tcp.conn-20 unacked:vector ETV
attr interpolationmode sample-hold
vector 231 Ping攻击.路由器[2].ppp[1].ppp rcvdPkFromHl:vector(packetBytes) ETV
attr interpolationmode none
attr source packetReceivedFromUpper
attr title "packets received from higher layer, vector(packetBytes)"
vector 232 Ping攻击.路由器[2].ppp[1].ppp.queue packetPushed:vector(packetBytes) ETV
attr interpolationmode none
attr title "packet pushed, vector(packetBytes)"
vector 233 Ping攻击.路由器[2].ppp[1].ppp.queue queueLength:vector ETV
attr interpolationmode sample-hold
attr source "count(packetPushed) - count(packetPopped) - count(packetRemoved) - count(packetDropped)"
attr title "queue length, vector"
vector 234 Ping攻击.路由器[2].ppp[1].ppp.queue packetPopped:vector(packetBytes) ETV
attr interpolationmode none
attr title "packet popped, vector(packetBytes)"
vector 235 Ping攻击.路由器[2].ppp[1].ppp.queue queueingTime:vector ETV
attr interpolationmode none
attr source queueingTime(packetPopped)
attr title "queueing times, vector"
attr unit s
vector 236 Ping攻击.路由器[2].ppp[1].ppp txPk:vector(packetBytes) ETV
attr interpolationmode none
attr source packetSentToLower
attr title "packets transmitted, vector(packetBytes)"
0	42220 8 0 0 0 0 1 0 0 0 0
1	42228 44 0 389 0 1.0042726 3 0 1 1 1
2	42272 8 0 0 0 0 1 0 0 0 0
3	42280 105 0 924 0 1.02818005 6 0 1 3 3
4	42385 44 0 700 0 1.0183075 3 0 1 1 1
5	42429 27 0 949 0 1.02877195 2 0 1 1 1
6	42456 8 2 2 1 1 1 1 1 1 1
7	42464 8 3 3 1 1 1 1 1 1 1
8	42472 8 4 4 1 1 1 1 1 1 1
9	42480 8 5 5 1 1 1 0 0 0 0
10	42488 13 5 5 1 1 1 20384 20384 20384 415507456
11	42501 13 5 5 1 1 1 20384 20384 20384 415507456
12	42514 9 5 5 1 1 1 0 0 0 0
13	42523 51 6 720 1 1.018883825 3 0 0 0 0
14	42574 91 6 720 1 1.018883825 4 20384 271929 836171 222251650579
15	42665 63 6 720 1 1.018883825 3 20384 20384 61152 1246522368
16	42728 61 6 720 1 1.018883825 3 0 251545 503090 126549774050
17	42789 104 7 771 1 1.0267875 6 0 0 0 0
18	42893 133 7 771 1 1.0267875 6 20384 271865 1376709 368340208581
19	43026 105 7 771 1 1.0267875 5 20384 20384 101920 2077537280
20	43131 105 7 771 1 1.0267875 5 0 251481 1003924 251966849444
21	43236 10 8 8 1 1 1 28 28 28 784
22	43246 10 9 9 1 1 1 28 28 28 784
23	43256 11 10 10 1 1 1 28 28 28 784
24	43267 31 11 200 1 1.0023044 2 28 44 72 2720
25	43298 78 12 723 1 1.018883825 4 28 1040 1152 1085920
26	43376 116 13 774 1 1.0267875 6 28 1040 2232 2169120
27	43492 31 14 201 1 1.0023044 2 46 62 108 5960
28	43523 31 14 201 1 1.0023044 2 64 64 128 8192
29	43554 58 14 201 1 1.0023044 4 0 1 2 2
30	43612 31 14 201 1 1.0023044 2 64 64 128 8192
31	43643 29 14 201 1 1.0023044 2 0 0 0 0
32	43672 78 15 724 1 1.018883825 4 46 1058 1224 1128688
33	43750 78 15 724 1 1.018883825 4 64 1058 1250 1131652
34	43828 144 15 738 1 1.019555825 8 0 1 4 4
35	43972 78 15 738 1 1.019555825 4 64 1058 1250 1131652
36	44050 79 15 738 1 1.019555825 4 0 0.000672 0.000672 4.51584e-07
37	44129 116 16 775 1 1.0267875 6 46 1058 2340 2251416
38	44245 116 16 775 1 1.0267875 6 64 1058 2372 2255112
39	44361 193 16 775 1 1.0267875 11 0 1 6 6
40	44554 94 16 772 1 1.0267875 5 64 1058 1314 1135748
41	44648 94 16 772 1 1.0267875 5 0 0.000672 0.000672 4.51584e-07
42	44742 38 34 239 1.000576 1.0028804 2 64 64 128 8192
43	44780 85 35 919 1.000576 1.028179825 4 64 1058 1250 1131652
44	44865 81 36 552 1.000576 1.0151548 4 64 1058 1250 1131652
45	44946 39 37 240 1.0005761 1.0028805 2 64 64 128 8192
46	44985 39 37 240 1.0005761 1.0028805 2 64 64 128 8192
47	45024 39 39 242 1.0005761 1.0028805 2 64 64 128 8192
48	45063 39 39 242 1.0005761 1.0028805 2 64 64 128 8192
49	45102 74 39 242 1.0005761 1.0028805 4 0 1 2 2
50	45176 39 39 242 1.0005761 1.0028805 2 64 64 128 8192
51	45215 37 39 242 1.0005761 1.0028805 2 0 0 0 0
52	45252 19 40 40 1.0005761 1.0005761 1 64 64 64 4096
53	45271 19 40 40 1.0005761 1.0005761 1 64 64 64 4096
54	45290 36 40 40 1.0005761 1.0005761 2 0 1 1 1
55	45326 19 40 40 1.0005761 1.0005761 1 64 64 64 4096
56	45345 18 40 40 1.0005761 1.0005761 1 0 0 0 0
57	45363 19 41 41 1.0005761 1.0005761 1 64 64 64 4096
58	45382 19 41 41 1.0005761 1.0005761 1 64 64 64 4096
59	45401 36 41 41 1.0005761 1.0005761 2 0 1 1 1
60	45437 19 41 41 1.0005761 1.0005761 1 64 64 64 4096
61	45456 18 41 41 1.0005761 1.0005761 1 0 0 0 0
62	45474 87 42 920 1.000576225 1.02818005 4 64 1058 1250 1131652
63	45561 87 42 920 1.000576225 1.02818005 4 64 1058 1250 1131652
64	45648 21 43 43 1.000576225 1.000576225 1 64 64 64 4096
65	45669 21 43 43 1.000576225 1.000576225 1 64 64 64 4096
66	45690 177 44 909 1.000576225 1.028099725 8 64 1058 1506 1148036
67	45867 177 44 909 1.000576225 1.028099725 8 64 1058 1506 1148036
68	46044 43 45 334 1.000576225 1.004065925 2 64 64 128 8192
69	46087 43 45 334 1.000576225 1.004065925 2 64 64 128 8192
70	46130 87 46 922 1.000576225 1.02818005 4 46 1040 1178 1087948
71	46217 21 47 47 1.000576225 1.000576225 1 46 46 46 2116
72	46238 177 48 910 1.000576225 1.028099725 8 46 1040 1362 1096412
73	46415 43 49 335 1.000576225 1.004065925 2 46 46 92 4232
74	46458 21 50 50 1.000576225 1.000576225 1 28 28 28 784
75	46479 43 52 328 1.000576225 1.004065875 2 28 28 56 1568
76	46522 41 54 703 1.000576225 1.0183076 2 28 44 72 2720
77	46563 155 55 636 1.000576225 1.016467475 7 28 1040 1268 1090576
78	46718 41 56 704 1.000576225 1.0183076 2 46 62 108 5960
79	46759 41 56 704 1.000576225 1.0183076 2 64 64 128 8192
80	46800 78 56 704 1.000576225 1.0183076 4 0 1 2 2
81	46878 41 56 704 1.000576225 1.0183076 2 64 64 128 8192
82	46919 39 56 704 1.000576225 1.0183076 2 0 0 0 0
83	46958 155 57 637 1.000576225 1.016467475 7 46 1058 1394 1138492
84	47113 155 57 637 1.000576225 1.016467475 7 64 1058 1442 1143940
85	47268 292 57 761 1.000576225 1.026787275 14 0 3 13 23
86	47560 155 57 761 1.000576225 1.026787275 7 64 1058 1442 1143940
87	47715 172 57 761 1.000576225 1.026787275 7 0 0.0103198 0.0156643 0.000121005904165
88	47887 20 58 58 1.00057625 1.00057625 1 64 64 64 4096
89	47907 20 58 58 1.00057625 1.00057625 1 64 64 64 4096
90	47927 82 59 945 1.00057625 1.02877195 4 64 64 256 16384
91	48009 82 59 945 1.00057625 1.02877195 4 64 64 256 16384
92	48091 41 60 337 1.00057625 1.00406595 2 64 64 128 8192
93	48132 41 60 337 1.00057625 1.00406595 2 64 64 128 8192
94	48173 20 61 61 1.00057625 1.00057625 1 46 46 46 2116
95	48193 82 62 947 1.00057625 1.02877195 4 46 46 184 8464
96	48275 41 63 338 1.00057625 1.00406595 2 46 46 92 4232
97	48316 39 94 305 1.0011521 1.0034565 2 64 64 128 8192
98	48355 19 95 95 1.0011521 1.0011521 1 64 64 64 4096
99	48374 19 96 96 1.0011521 1.0011521 1 64 64 64 4096
100	48393 41 97 306 1.0011522 1.0034566 2 64 64 128 8192
101	48434 41 97 306 1.0011522 1.0034566 2 64 64 128 8192
102	48475 20 98 98 1.0011522 1.0011522 1 64 64 64 4096
103	48495 20 98 98 1.0011522 1.0011522 1 64 64 64 4096
104	48515 20 99 99 1.0011522 1.0011522 1 64 64 64 4096
105	48535 20 99 99 1.0011522 1.0011522 1 64 64 64 4096
106	48555 42 100 307 1.0011522 1.0034566 2 46 46 92 4232
107	48597 21 101 101 1.0011522 1.0011522 1 46 46 46 2116
108	48618 21 102 102 1.0011522 1.0011522 1 46 46 46 2116
109	48639 21 103 103 1.0011522 1.0011522 1 28 28 28 784
110	48660 21 106 106 1.0011522 1.0011522 1 28 28 28 784
111	48681 21 107 107 1.0011522 1.0011522 1 46 46 46 2116
112	48702 21 107 107 1.0011522 1.0011522 1 64 64 64 4096
113	48723 40 107 107 1.0011522 1.0011522 2 0 1 1 1
114	48763 21 107 107 1.0011522 1.0011522 1 64 64 64 4096
115	48784 20 107 107 1.0011522 1.0011522 1 0 0 0 0
116	48804 44 112 712 1.001248225 1.0188836 2 64 64 128 8192
117	48848 163 113 944 1.001248225 1.028771725 7 64 1058 1442 1143940
118	49011 45 114 713 1.00124845 1.018883825 2 64 64 128 8192
119	49056 45 114 713 1.00124845 1.018883825 2 64 64 128 8192
120	49101 154 115 762 1.00124845 1.0267875 7 64 1058 2436 2259208
121	49255 108 116 763 1.00124845 1.0267875 5 64 1058 1314 1135748
122	49363 108 116 763 1.00124845 1.0267875 5 64 1058 1314 1135748
123	49471 45 117 714 1.00124845 1.018883825 2 46 46 92 4232
124	49516 108 118 764 1.00124845 1.0267875 5 46 1040 1224 1090064
125	49624 114 125 921 1.001248475 1.02818005 5 64 1058 1314 1135748
126	49738 303 126 950 1.001248475 1.028771975 13 64 1058 2820 2283784
127	50041 113 127 925 1.0012485 1.028180075 5 64 1058 1314 1135748
128	50154 283 128 951 1.0012485 1.028772 13 64 1058 2820 2283784
129	50437 21 154 154 1.0017282 1.0017282 1 64 64 64 4096
130	50458 21 155 155 1.0017283 1.0017283 1 64 64 64 4096
131	50479 21 155 155 1.0017283 1.0017283 1 64 64 64 4096
132	50500 21 157 157 1.0017283 1.0017283 1 64 64 64 4096
133	50521 21 157 157 1.0017283 1.0017283 1 64 64 64 4096
134	50542 40 157 157 1.0017283 1.0017283 2 0 1 1 1
135	50582 21 157 157 1.0017283 1.0017283 1 64 64 64 4096
136	50603 20 157 157 1.0017283 1.0017283 1 0 0 0 0
137	50623 69 170 924 1.001920675 1.02818005 3 40 1040 1124 1085136
138	50692 69 170 924 1.001920675 1.02818005 3 40 1040 1124 1085136
139	50761 128 170 924 1.001920675 1.02818005 6 0 1 3 3
140	50889 69 170 924 1.001920675 1.02818005 3 40 1040 1124 1085136
141	50958 64 170 924 1.001920675 1.02818005 3 0 0 0 0
142	51022 69 170 924 1.001920675 1.02818005 3 47 1047 1145 1101019
143	51091 81 171 634 1.001920675 1.016467475 3 250000 250000 750000 187500000000
144	51172 66 171 634 1.001920675 1.016467475 3 0 0 0 0
145	51238 108 171 560 1.001920675 1.015155025 4 270385 271385 1083540 293515732900
146	51346 52 171 250 1.001920675 1.003265125 2 20384 20384 40768 831014912
147	51398 88 171 560 1.001920675 1.015155025 4 0 0 0 0
148	51486 78 171 560 1.001920675 1.015155025 3 20384 20384 61152 1246522368
149	51564 81 171 560 1.001920675 1.015155025 3 250001 251001 752003 188503504003
150	51645 21 196 196 1.0023043 1.0023043 1 64 64 64 4096
151	51666 21 197 197 1.0023044 1.0023044 1 64 64 64 4096
152	51687 21 197 197 1.0023044 1.0023044 1 64 64 64 4096
153	51708 21 198 198 1.0023044 1.0023044 1 46 46 46 2116
154	51729 75 209 766 1.0025929 1.0267875 3 250480 250481 751442 188221693122
155	51804 75 209 766 1.0025929 1.0267875 3 250001 251001 752003 188503504003
156	51879 48 209 683 1.0025929 1.0181635 2 20384 20384 40768 831014912
157	51927 46 211 769 1.0025929 1.0267875 2 1000 1000 2000 2000000
158	51973 50 213 771 1.0025929 1.0267875 2 250001 251001 501002 125502002002
159	52023 66 213 771 1.0025929 1.0267875 3 0 1000 2000 2000000
160	52089 45 235 757 1.002736775 1.02030815 2 47 51 98 4810
161	52134 45 235 757 1.002736775 1.02030815 2 40 44 84 3536
162	52179 23 236 236 1.002736775 1.002736775 1 28 28 28 784
163	52202 89 237 759 1.002736775 1.02030815 4 28 44 156 6256
164	52291 89 238 760 1.002736775 1.02030815 4 46 62 228 13168
165	52380 89 238 760 1.002736775 1.02030815 4 64 64 256 16384
166	52469 169 238 760 1.002736775 1.02030815 8 0 1 4 4
167	52638 88 238 760 1.002736775 1.02030815 4 64 64 256 16384
168	52726 93 238 760 1.002736775 1.02030815 4 0 0.00131225 0.00131225 1.7220000625e-06
169	52819 54 250 557 1.003265125 1.015155025 2 250001 250001 500002 125001000002
170	52873 54 250 557 1.003265125 1.015155025 2 250481 250481 500962 125481462722
171	52927 47 250 560 1.003265125 1.015155025 2 0 1000 1000 1000000
172	52974 144 268 874 1.00336115 1.0270122 7 1 1 7 7
173	53118 154 280 870 1.003361375 1.027012175 7 1 1 7 7
174	53272 142 282 855 1.0033614 1.02701195 7 1 1 7 7
175	53414 154 284 871 1.003361425 1.027012175 7 1 1 7 7
176	53568 145 286 875 1.00336145 1.0270122 7 1 1 7 7
177	53713 103 297 837 1.00339315 1.0269155 5 0 1 4 4
178	53816 101 299 887 1.0033934 1.02704395 5 0 3 8 20
179	53917 21 309 309 1.0034566 1.0034566 1 44 44 44 1936
180	53938 21 309 309 1.0034566 1.0034566 1 44 44 44 1936
181	53959 40 309 309 1.0034566 1.0034566 2 0 1 1 1
182	53999 21 309 309 1.0034566 1.0034566 1 44 44 44 1936
183	54020 20 309 309 1.0034566 1.0034566 1 0 0 0 0
184	54040 21 309 309 1.0034566 1.0034566 1 51 51 51 2601
185	54061 86 325 908 1.00406565 1.0280995 4 64 64 256 16384
186	54147 110 382 888 1.004194125 1.027044175 5 0 3 6 14
187	54257 21 390 390 1.0042727 1.0042727 1 51 51 51 2601
188	54278 21 390 390 1.0042727 1.0042727 1 44 44 44 1936
189	54299 130 408 946 1.00486655 1.02877195 6 64 64 384 24576
190	54429 54 483 483 1.006179025 1.006179025 2 270385 270385 540770 146216096450
191	54483 52 483 912 1.006179025 1.028099725 2 20384 20384 40768 831014912
192	54535 22 483 483 1.006179025 1.006179025 1 0 0 0 0
193	54557 26 483 483 1.006179025 1.006179025 1 20384 20384 20384 415507456
194	54583 27 483 483 1.006179025 1.006179025 1 250001 250001 250001 62500500001
195	54610 22 557 557 1.015155025 1.015155025 1 0 0 0 0
196	54632 25 558 558 1.015155025 1.015155025 1 1000 1000 1000 1000000
197	54657 32 558 558 1.015155025 1.015155025 1 0.012562125 0.012562125 0.012562125 0.00015780698451563
198	54689 25 558 558 1.015155025 1.015155025 1 1000 1000 1000 1000000
199	54714 27 560 560 1.015155025 1.015155025 1 250481 250481 250481 62740731361
200	54741 54 634 634 1.016467475 1.016467475 2 270385 270385 540770 146216096450
201	54795 26 634 634 1.016467475 1.016467475 1 20384 20384 20384 415507456
202	54821 22 634 634 1.016467475 1.016467475 1 0 0 0 0
203	54843 26 634 634 1.016467475 1.016467475 1 20384 20384 20384 415507456
204	54869 27 634 634 1.016467475 1.016467475 1 250001 250001 250001 62500500001
205	54896 21 661 661 1.0174915 1.0174915 1 44 44 44 1936
206	54917 21 661 661 1.0174915 1.0174915 1 44 44 44 1936
207	54938 40 661 661 1.0174915 1.0174915 2 0 1 1 1
208	54978 21 661 661 1.0174915 1.0174915 1 44 44 44 1936
209	54999 20 661 661 1.0174915 1.0174915 1 0 0 0 0
210	55019 21 661 661 1.0174915 1.0174915 1 51 51 51 2601
211	55040 28 683 683 1.0181635 1.0181635 1 0.0155706 0.0155706 0.0155706 0.00024244358436
212	55068 30 683 683 1.0181635 1.0181635 1 0.001946325 0.001946325 0.001946325 3.788181005625e-06
213	55098 30 683 683 1.0181635 1.0181635 1 0.658196325 0.658196325 0.658196325 0.43322240224351
214	55128 30 683 683 1.0181635 1.0181635 1 2.634731625 2.634731625 2.634731625 6.9418107357751
215	55158 23 683 683 1.0181635 1.0181635 1 2912 2912 2912 8479744
216	55181 29 683 683 1.0181635 1.0181635 1 4294967295 4294967295 4294967295 1.844674406512e+19
217	55210 40 683 766 1.0181635 1.0267875 2 0 0 0 0
218	55250 21 701 701 1.0183076 1.0183076 1 51 51 51 2601
219	55271 21 701 701 1.0183076 1.0183076 1 44 44 44 1936
220	55292 27 716 716 1.018883825 1.018883825 1 251544 251544 251544 63274383936
221	55319 27 716 716 1.018883825 1.018883825 1 250001 250001 250001 62500500001
222	55346 26 716 716 1.018883825 1.018883825 1 20384 20384 20384 415507456
223	55372 25 718 718 1.018883825 1.018883825 1 1000 1000 1000 1000000
224	55397 27 720 720 1.018883825 1.018883825 1 250001 250001 250001 62500500001
225	55424 25 720 720 1.018883825 1.018883825 1 1000 1000 1000 1000000
226	55449 23 767 767 1.0267875 1.0267875 1 1000 1000 1000 1000000
227	55472 30 767 767 1.0267875 1.0267875 1 0.011632475 0.011632475 0.011632475 0.00013531447462563
228	55502 27 912 912 1.028099725 1.028099725 1 250001 250001 250001 62500500001
229	55529 27 912 912 1.028099725 1.028099725 1 251545 251545 251545 63274887025
230	55556 22 912 912 1.028099725 1.028099725 1 0 0 0 0
231	55578 22 949 949 1.02877195 1.02877195 1 44 44 44 1936
232	55600 22 949 949 1.02877195 1.02877195 1 44 44 44 1936
233	55622 42 949 949 1.02877195 1.02877195 2 0 1 1 1
234	55664 22 949 949 1.02877195 1.02877195 1 44 44 44 1936
235	55686 21 949 949 1.02877195 1.02877195 1 0 0 0 0
236	55707 22 949 949 1.02877195 1.02877195 1 51 51 51 2601

