version 2
run General-0-20220511-11:35:33-91795
attr configname General
attr datetime 20220511-11:35:33
attr experiment General
attr inifile PingAttack.ini
attr iterationvars ""
attr iterationvarsf ""
attr measurement ""
attr network Ping攻击
attr processid 91795
attr repetition 0
attr replication #0
attr resultdir results
attr runnumber 0
attr seedset 0
param *.numSubnet*Attackers 2
param *.numSubnet*Clients 1
param *.总线[0].positions "\"40\""
param *.总线[1].positions "\"33\""
param *.路由器[*].eth[*].mac.queue.packetCapacity 3
param *.路由器[*].ppp[*].ppp.queue.packetCapacity 3
param *.被控主机[*].numApps 1
param *.被控主机[*].app[0].typename "\"PingApp\""
param *.被控主机[*].app[0].destAddr "\"服务器\""
param *.被控主机[*].app[0].sendInterval 5ms
param *.被控主机[*].app[0].startTime 3s
param *.被控主机[*].app[0].stopTime 10s
param *.正常客户[*].numApps 1
param *.正常客户[*].app[0].typename "\"TcpBasicClientApp\""
param *.正常客户[*].app[0].connectAddress "\"服务器\""
param *.正常客户[*].app[0].connectPort 1000
param *.正常客户[*].app[0].thinkTime 0s
param *.正常客户[*].app[0].idleInterval 0s
param *.正常客户[*].app[0].numRequestsPerSession 10
param *.正常客户[*].app[0].requestLength 1000B
param *.正常客户[*].app[0].replyLength 1000B
param *.服务器.numApps 1
param *.服务器.app[0].typename "\"TcpGenericServerApp\""
param *.服务器.app[0].localPort 1000
param **.tcp.mss 1456
param *.visualizer.*.packetDropVisualizer.displayPacketDrops true
param *.visualizer.*.packetDropVisualizer.labelFormat "\"name: %n; reason: %r;\""
param *.visualizer.*.packetDropVisualizer.fadeOutTime 3s
param *.正常客户[1..].eth[0].csmacdSupport true
param *.被控主机[2..].eth[0].csmacdSupport true
param *.服务器.eth[0].csmacdSupport true
param *.路由器[1..2].eth[0].csmacdSupport true
param *.正常客户[1..].eth[0].mac.duplexMode false
param *.被控主机[2..].eth[0].mac.duplexMode false
param *.服务器.eth[0].mac.duplexMode false
param *.路由器[1..2].eth[0].mac.duplexMode false

vector 0 Ping攻击.路由器[0].ppp[0].ppp transmissionState:vector ETV
attr interpolationmode sample-hold
attr source transmissionStateChanged
attr title "tx state, vector"
vector 1 Ping攻击.路由器[0].ppp[1].ppp transmissionState:vector ETV
attr interpolationmode sample-hold
attr source transmissionStateChanged
attr title "tx state, vector"
vector 2 Ping攻击.路由器[1].ppp[0].ppp transmissionState:vector ETV
attr interpolationmode sample-hold
attr source transmissionStateChanged
attr title "tx state, vector"
vector 3 Ping攻击.路由器[1].ppp[1].ppp transmissionState:vector ETV
attr interpolationmode sample-hold
attr source transmissionStateChanged
attr title "tx state, vector"
vector 4 Ping攻击.路由器[2].ppp[0].ppp transmissionState:vector ETV
attr interpolationmode sample-hold
attr source transmissionStateChanged
attr title "tx state, vector"
vector 5 Ping攻击.路由器[2].ppp[1].ppp transmissionState:vector ETV
attr interpolationmode sample-hold
attr source transmissionStateChanged
attr title "tx state, vector"
vector 6 Ping攻击.正常客户[0].app[0] numActiveSessions:vector ETV
attr interpolationmode sample-hold
attr source sum(connect)
attr title "number of active sessions, vector"
vector 7 Ping攻击.正常客户[1].app[0] numActiveSessions:vector ETV
attr interpolationmode sample-hold
attr source sum(connect)
attr title "number of active sessions, vector"
vector 8 Ping攻击.正常客户[2].app[0] numActiveSessions:vector ETV
attr interpolationmode sample-hold
attr source sum(connect)
attr title "number of active sessions, vector"
vector 9 Ping攻击.正常客户[0].tcp.conn-16 tcpRcvQueueBytes:vector ETV
attr interpolationmode sample-hold
vector 10 Ping攻击.正常客户[0].tcp.conn-16 rcvAdv:vector ETV
attr interpolationmode sample-hold
vector 11 Ping攻击.正常客户[0].tcp.conn-16 rcvWnd:vector ETV
attr interpolationmode sample-hold
vector 12 Ping攻击.正常客户[0].tcp.conn-16 sndAck:vector ETV
attr interpolationmode sample-hold
vector 13 Ping攻击.正常客户[1].tcp.conn-17 tcpRcvQueueBytes:vector ETV
attr interpolationmode sample-hold
vector 14 Ping攻击.正常客户[1].tcp.conn-17 rcvAdv:vector ETV
attr interpolationmode sample-hold
vector 15 Ping攻击.正常客户[1].tcp.conn-17 rcvWnd:vector ETV
attr interpolationmode sample-hold
vector 16 Ping攻击.正常客户[1].tcp.conn-17 sndAck:vector ETV
attr interpolationmode sample-hold
vector 17 Ping攻击.正常客户[2].tcp.conn-18 tcpRcvQueueBytes:vector ETV
attr interpolationmode sample-hold
vector 18 Ping攻击.正常客户[2].tcp.conn-18 rcvAdv:vector ETV
attr interpolationmode sample-hold
vector 19 Ping攻击.正常客户[2].tcp.conn-18 rcvWnd:vector ETV
attr interpolationmode sample-hold
vector 20 Ping攻击.正常客户[2].tcp.conn-18 sndAck:vector ETV
attr interpolationmode sample-hold
vector 21 Ping攻击.正常客户[0].ipv4.arp arpRequestSent:vector(packetBytes) ETV
attr source arpRequestSent
attr title "ARP request sent, vector(packetBytes)"
vector 22 Ping攻击.正常客户[1].ipv4.arp arpRequestSent:vector(packetBytes) ETV
attr source arpRequestSent
attr title "ARP request sent, vector(packetBytes)"
vector 23 Ping攻击.正常客户[2].ipv4.arp arpRequestSent:vector(packetBytes) ETV
attr source arpRequestSent
attr title "ARP request sent, vector(packetBytes)"
vector 24 Ping攻击.正常客户[0].eth[0].encap encapPk:vector(packetBytes) ETV
attr interpolationmode none
attr source encapPk
attr title "packets encapsulated, vector(packetBytes)"
vector 25 Ping攻击.正常客户[1].eth[0].encap encapPk:vector(packetBytes) ETV
attr interpolationmode none
attr source encapPk
attr title "packets encapsulated, vector(packetBytes)"
vector 26 Ping攻击.正常客户[2].eth[0].encap encapPk:vector(packetBytes) ETV
attr interpolationmode none
attr source encapPk
attr title "packets encapsulated, vector(packetBytes)"
vector 27 Ping攻击.正常客户[0].eth[0].mac packetReceivedFromUpper:vector(packetBytes) ETV
attr interpolationmode none
attr source packetReceivedFromUpper
attr title "packet bytes from higher layer, vector(packetBytes)"
vector 28 Ping攻击.正常客户[0].eth[0].mac.queue packetPushed:vector(packetBytes) ETV
attr interpolationmode none
attr title "packet pushed, vector(packetBytes)"
vector 29 Ping攻击.正常客户[0].eth[0].mac.queue queueLength:vector ETV
attr interpolationmode sample-hold
attr source "count(packetPushed) - count(packetPopped) - count(packetRemoved) - count(packetDropped)"
attr title "queue length, vector"
vector 30 Ping攻击.正常客户[0].eth[0].mac.queue packetPopped:vector(packetBytes) ETV
attr interpolationmode none
attr title "packet popped, vector(packetBytes)"
vector 31 Ping攻击.正常客户[0].eth[0].mac.queue queueingTime:vector ETV
attr interpolationmode none
attr source queueingTime(packetPopped)
attr title "queueing times, vector"
attr unit s
vector 32 Ping攻击.正常客户[1].eth[0].mac packetReceivedFromUpper:vector(packetBytes) ETV
attr interpolationmode none
attr source packetReceivedFromUpper
attr title "packet bytes from higher layer, vector(packetBytes)"
vector 33 Ping攻击.正常客户[1].eth[0].mac.queue packetPushed:vector(packetBytes) ETV
attr interpolationmode none
attr title "packet pushed, vector(packetBytes)"
vector 34 Ping攻击.正常客户[1].eth[0].mac.queue queueLength:vector ETV
attr interpolationmode sample-hold
attr source "count(packetPushed) - count(packetPopped) - count(packetRemoved) - count(packetDropped)"
attr title "queue length, vector"
vector 35 Ping攻击.正常客户[1].eth[0].mac.queue packetPopped:vector(packetBytes) ETV
attr interpolationmode none
attr title "packet popped, vector(packetBytes)"
vector 36 Ping攻击.正常客户[1].eth[0].mac.queue queueingTime:vector ETV
attr interpolationmode none
attr source queueingTime(packetPopped)
attr title "queueing times, vector"
attr unit s
vector 37 Ping攻击.正常客户[2].eth[0].mac packetReceivedFromUpper:vector(packetBytes) ETV
attr interpolationmode none
attr source packetReceivedFromUpper
attr title "packet bytes from higher layer, vector(packetBytes)"
vector 38 Ping攻击.正常客户[2].eth[0].mac.queue packetPushed:vector(packetBytes) ETV
attr interpolationmode none
attr title "packet pushed, vector(packetBytes)"
vector 39 Ping攻击.正常客户[2].eth[0].mac.queue queueLength:vector ETV
attr interpolationmode sample-hold
attr source "count(packetPushed) - count(packetPopped) - count(packetRemoved) - count(packetDropped)"
attr title "queue length, vector"
vector 40 Ping攻击.正常客户[2].eth[0].mac.queue packetPopped:vector(packetBytes) ETV
attr interpolationmode none
attr title "packet popped, vector(packetBytes)"
vector 41 Ping攻击.正常客户[2].eth[0].mac.queue queueingTime:vector ETV
attr interpolationmode none
attr source queueingTime(packetPopped)
attr title "queueing times, vector"
attr unit s
vector 42 Ping攻击.正常客户[0].eth[0].mac txPk:vector(packetBytes) ETV
attr interpolationmode none
attr source packetSentToLower
attr title "packets transmitted, vector(packetBytes)"
vector 43 Ping攻击.正常客户[1].eth[0].mac txPk:vector(packetBytes) ETV
attr interpolationmode none
attr source packetSentToLower
attr title "packets transmitted, vector(packetBytes)"
vector 44 Ping攻击.正常客户[2].eth[0].mac txPk:vector(packetBytes) ETV
attr interpolationmode none
attr source packetSentToLower
attr title "packets transmitted, vector(packetBytes)"
vector 45 Ping攻击.交换机.eth[1].mac rxPkOk:vector(packetBytes) ETV
attr interpolationmode none
attr source rxPkOk
attr title "packets received OK, vector(packetBytes)"
vector 46 Ping攻击.交换机.eth[1].mac passedUpPk:vector(packetBytes) ETV
attr interpolationmode none
attr source packetSentToUpper
attr title "packets passed to higher layer, vector(packetBytes)"
vector 47 Ping攻击.交换机.eth[0].mac packetReceivedFromUpper:vector(packetBytes) ETV
attr interpolationmode none
attr source packetReceivedFromUpper
attr title "packet bytes from higher layer, vector(packetBytes)"
vector 48 Ping攻击.交换机.eth[0].mac.queue packetPushed:vector(packetBytes) ETV
attr interpolationmode none
attr title "packet pushed, vector(packetBytes)"
vector 49 Ping攻击.交换机.eth[0].mac.queue queueLength:vector ETV
attr interpolationmode sample-hold
attr source "count(packetPushed) - count(packetPopped) - count(packetRemoved) - count(packetDropped)"
attr title "queue length, vector"
vector 50 Ping攻击.交换机.eth[0].mac.queue packetPopped:vector(packetBytes) ETV
attr interpolationmode none
attr title "packet popped, vector(packetBytes)"
vector 51 Ping攻击.交换机.eth[0].mac.queue queueingTime:vector ETV
attr interpolationmode none
attr source queueingTime(packetPopped)
attr title "queueing times, vector"
attr unit s
vector 52 Ping攻击.交换机.eth[2].mac packetReceivedFromUpper:vector(packetBytes) ETV
attr interpolationmode none
attr source packetReceivedFromUpper
attr title "packet bytes from higher layer, vector(packetBytes)"
vector 53 Ping攻击.交换机.eth[2].mac.queue packetPushed:vector(packetBytes) ETV
attr interpolationmode none
attr title "packet pushed, vector(packetBytes)"
vector 54 Ping攻击.交换机.eth[2].mac.queue queueLength:vector ETV
attr interpolationmode sample-hold
attr source "count(packetPushed) - count(packetPopped) - count(packetRemoved) - count(packetDropped)"
attr title "queue length, vector"
vector 55 Ping攻击.交换机.eth[2].mac.queue packetPopped:vector(packetBytes) ETV
attr interpolationmode none
attr title "packet popped, vector(packetBytes)"
vector 56 Ping攻击.交换机.eth[2].mac.queue queueingTime:vector ETV
attr interpolationmode none
attr source queueingTime(packetPopped)
attr title "queueing times, vector"
attr unit s
vector 57 Ping攻击.交换机.eth[3].mac packetReceivedFromUpper:vector(packetBytes) ETV
attr interpolationmode none
attr source packetReceivedFromUpper
attr title "packet bytes from higher layer, vector(packetBytes)"
vector 58 Ping攻击.交换机.eth[3].mac.queue packetPushed:vector(packetBytes) ETV
attr interpolationmode none
attr title "packet pushed, vector(packetBytes)"
vector 59 Ping攻击.交换机.eth[3].mac.queue queueLength:vector ETV
attr interpolationmode sample-hold
attr source "count(packetPushed) - count(packetPopped) - count(packetRemoved) - count(packetDropped)"
attr title "queue length, vector"
vector 60 Ping攻击.交换机.eth[3].mac.queue packetPopped:vector(packetBytes) ETV
attr interpolationmode none
attr title "packet popped, vector(packetBytes)"
vector 61 Ping攻击.交换机.eth[3].mac.queue queueingTime:vector ETV
attr interpolationmode none
attr source queueingTime(packetPopped)
attr title "queueing times, vector"
attr unit s
vector 62 Ping攻击.路由器[1].eth[0].mac rxPkOk:vector(packetBytes) ETV
attr interpolationmode none
attr source rxPkOk
attr title "packets received OK, vector(packetBytes)"
vector 63 Ping攻击.路由器[1].eth[0].mac passedUpPk:vector(packetBytes) ETV
attr interpolationmode none
attr source packetSentToUpper
attr title "packets passed to higher layer, vector(packetBytes)"
vector 64 Ping攻击.被控主机[2].eth[0].mac rxPkOk:vector(packetBytes) ETV
attr interpolationmode none
attr source rxPkOk
attr title "packets received OK, vector(packetBytes)"
vector 65 Ping攻击.被控主机[2].eth[0].mac passedUpPk:vector(packetBytes) ETV
attr interpolationmode none
attr source packetSentToUpper
attr title "packets passed to higher layer, vector(packetBytes)"
vector 66 Ping攻击.服务器.eth[0].mac rxPkOk:vector(packetBytes) ETV
attr interpolationmode none
attr source rxPkOk
attr title "packets received OK, vector(packetBytes)"
vector 67 Ping攻击.服务器.eth[0].mac passedUpPk:vector(packetBytes) ETV
attr interpolationmode none
attr source packetSentToUpper
attr title "packets passed to higher layer, vector(packetBytes)"
vector 68 Ping攻击.被控主机[4].eth[0].mac rxPkOk:vector(packetBytes) ETV
attr interpolationmode none
attr source rxPkOk
attr title "packets received OK, vector(packetBytes)"
vector 69 Ping攻击.被控主机[4].eth[0].mac passedUpPk:vector(packetBytes) ETV
attr interpolationmode none
attr source packetSentToUpper
attr title "packets passed to higher layer, vector(packetBytes)"
vector 70 Ping攻击.路由器[1].eth[0].encap decapPk:vector(packetBytes) ETV
attr interpolationmode none
attr source decapPk
attr title "packets decapsulated, vector(packetBytes)"
vector 71 Ping攻击.被控主机[2].eth[0].encap decapPk:vector(packetBytes) ETV
attr interpolationmode none
attr source decapPk
attr title "packets decapsulated, vector(packetBytes)"
vector 72 Ping攻击.服务器.eth[0].encap decapPk:vector(packetBytes) ETV
attr interpolationmode none
attr source decapPk
attr title "packets decapsulated, vector(packetBytes)"
vector 73 Ping攻击.被控主机[4].eth[0].encap decapPk:vector(packetBytes) ETV
attr interpolationmode none
attr source decapPk
attr title "packets decapsulated, vector(packetBytes)"
vector 74 Ping攻击.路由器[1].ipv4.arp arpReplySent:vector(packetBytes) ETV
attr source arpReplySent
attr title "ARP replies sent, vector(packetBytes)"
vector 75 Ping攻击.服务器.ipv4.arp arpReplySent:vector(packetBytes) ETV
attr source arpReplySent
attr title "ARP replies sent, vector(packetBytes)"
vector 76 Ping攻击.路由器[1].eth[0].encap encapPk:vector(packetBytes) ETV
attr interpolationmode none
attr source encapPk
attr title "packets encapsulated, vector(packetBytes)"
vector 77 Ping攻击.服务器.eth[0].encap encapPk:vector(packetBytes) ETV
attr interpolationmode none
attr source encapPk
attr title "packets encapsulated, vector(packetBytes)"
vector 78 Ping攻击.路由器[1].eth[0].mac packetReceivedFromUpper:vector(packetBytes) ETV
attr interpolationmode none
attr source packetReceivedFromUpper
attr title "packet bytes from higher layer, vector(packetBytes)"
vector 79 Ping攻击.路由器[1].eth[0].mac.queue packetPushed:vector(packetBytes) ETV
attr interpolationmode none
attr title "packet pushed, vector(packetBytes)"
vector 80 Ping攻击.路由器[1].eth[0].mac.queue queueLength:vector ETV
attr interpolationmode sample-hold
attr source "count(packetPushed) - count(packetPopped) - count(packetRemoved) - count(packetDropped)"
attr title "queue length, vector"
vector 81 Ping攻击.路由器[1].eth[0].mac.queue packetPopped:vector(packetBytes) ETV
attr interpolationmode none
attr title "packet popped, vector(packetBytes)"
vector 82 Ping攻击.路由器[1].eth[0].mac.queue queueingTime:vector ETV
attr interpolationmode none
attr source queueingTime(packetPopped)
attr title "queueing times, vector"
attr unit s
vector 83 Ping攻击.服务器.eth[0].mac packetReceivedFromUpper:vector(packetBytes) ETV
attr interpolationmode none
attr source packetReceivedFromUpper
attr title "packet bytes from higher layer, vector(packetBytes)"
vector 84 Ping攻击.服务器.eth[0].mac.queue packetPushed:vector(packetBytes) ETV
attr interpolationmode none
attr title "packet pushed, vector(packetBytes)"
vector 85 Ping攻击.服务器.eth[0].mac.queue queueLength:vector ETV
attr interpolationmode sample-hold
attr source "count(packetPushed) - count(packetPopped) - count(packetRemoved) - count(packetDropped)"
attr title "queue length, vector"
vector 86 Ping攻击.服务器.eth[0].mac.queue packetPopped:vector(packetBytes) ETV
attr interpolationmode none
attr title "packet popped, vector(packetBytes)"
vector 87 Ping攻击.服务器.eth[0].mac.queue queueingTime:vector ETV
attr interpolationmode none
attr source queueingTime(packetPopped)
attr title "queueing times, vector"
attr unit s
vector 88 Ping攻击.被控主机[3].eth[0].mac rxPkOk:vector(packetBytes) ETV
attr interpolationmode none
attr source rxPkOk
attr title "packets received OK, vector(packetBytes)"
vector 89 Ping攻击.被控主机[3].eth[0].mac passedUpPk:vector(packetBytes) ETV
attr interpolationmode none
attr source packetSentToUpper
attr title "packets passed to higher layer, vector(packetBytes)"
vector 90 Ping攻击.路由器[2].eth[0].mac rxPkOk:vector(packetBytes) ETV
attr interpolationmode none
attr source rxPkOk
attr title "packets received OK, vector(packetBytes)"
vector 91 Ping攻击.路由器[2].eth[0].mac passedUpPk:vector(packetBytes) ETV
attr interpolationmode none
attr source packetSentToUpper
attr title "packets passed to higher layer, vector(packetBytes)"
vector 92 Ping攻击.被控主机[5].eth[0].mac rxPkOk:vector(packetBytes) ETV
attr interpolationmode none
attr source rxPkOk
attr title "packets received OK, vector(packetBytes)"
vector 93 Ping攻击.被控主机[5].eth[0].mac passedUpPk:vector(packetBytes) ETV
attr interpolationmode none
attr source packetSentToUpper
attr title "packets passed to higher layer, vector(packetBytes)"
vector 94 Ping攻击.被控主机[3].eth[0].encap decapPk:vector(packetBytes) ETV
attr interpolationmode none
attr source decapPk
attr title "packets decapsulated, vector(packetBytes)"
vector 95 Ping攻击.路由器[2].eth[0].encap decapPk:vector(packetBytes) ETV
attr interpolationmode none
attr source decapPk
attr title "packets decapsulated, vector(packetBytes)"
vector 96 Ping攻击.被控主机[5].eth[0].encap decapPk:vector(packetBytes) ETV
attr interpolationmode none
attr source decapPk
attr title "packets decapsulated, vector(packetBytes)"
vector 97 Ping攻击.交换机.eth[0].mac txPk:vector(packetBytes) ETV
attr interpolationmode none
attr source packetSentToLower
attr title "packets transmitted, vector(packetBytes)"
vector 98 Ping攻击.交换机.eth[2].mac txPk:vector(packetBytes) ETV
attr interpolationmode none
attr source packetSentToLower
attr title "packets transmitted, vector(packetBytes)"
vector 99 Ping攻击.交换机.eth[3].mac txPk:vector(packetBytes) ETV
attr interpolationmode none
attr source packetSentToLower
attr title "packets transmitted, vector(packetBytes)"
vector 100 Ping攻击.路由器[0].eth[0].mac rxPkOk:vector(packetBytes) ETV
attr interpolationmode none
attr source rxPkOk
attr title "packets received OK, vector(packetBytes)"
vector 101 Ping攻击.路由器[0].eth[0].mac passedUpPk:vector(packetBytes) ETV
attr interpolationmode none
attr source packetSentToUpper
attr title "packets passed to higher layer, vector(packetBytes)"
vector 102 Ping攻击.被控主机[0].eth[0].mac rxPkOk:vector(packetBytes) ETV
attr interpolationmode none
attr source rxPkOk
attr title "packets received OK, vector(packetBytes)"
vector 103 Ping攻击.被控主机[0].eth[0].mac passedUpPk:vector(packetBytes) ETV
attr interpolationmode none
attr source packetSentToUpper
attr title "packets passed to higher layer, vector(packetBytes)"
vector 104 Ping攻击.被控主机[1].eth[0].mac rxPkOk:vector(packetBytes) ETV
attr interpolationmode none
attr source rxPkOk
attr title "packets received OK, vector(packetBytes)"
vector 105 Ping攻击.被控主机[1].eth[0].mac passedUpPk:vector(packetBytes) ETV
attr interpolationmode none
attr source packetSentToUpper
attr title "packets passed to higher layer, vector(packetBytes)"
vector 106 Ping攻击.路由器[0].eth[0].encap decapPk:vector(packetBytes) ETV
attr interpolationmode none
attr source decapPk
attr title "packets decapsulated, vector(packetBytes)"
vector 107 Ping攻击.被控主机[0].eth[0].encap decapPk:vector(packetBytes) ETV
attr interpolationmode none
attr source decapPk
attr title "packets decapsulated, vector(packetBytes)"
vector 108 Ping攻击.被控主机[1].eth[0].encap decapPk:vector(packetBytes) ETV
attr interpolationmode none
attr source decapPk
attr title "packets decapsulated, vector(packetBytes)"
vector 109 Ping攻击.路由器[0].ipv4.arp arpReplySent:vector(packetBytes) ETV
attr source arpReplySent
attr title "ARP replies sent, vector(packetBytes)"
vector 110 Ping攻击.路由器[0].eth[0].encap encapPk:vector(packetBytes) ETV
attr interpolationmode none
attr source encapPk
attr title "packets encapsulated, vector(packetBytes)"
vector 111 Ping攻击.路由器[0].eth[0].mac packetReceivedFromUpper:vector(packetBytes) ETV
attr interpolationmode none
attr source packetReceivedFromUpper
attr title "packet bytes from higher layer, vector(packetBytes)"
vector 112 Ping攻击.路由器[0].eth[0].mac.queue packetPushed:vector(packetBytes) ETV
attr interpolationmode none
attr title "packet pushed, vector(packetBytes)"
vector 113 Ping攻击.路由器[0].eth[0].mac.queue queueLength:vector ETV
attr interpolationmode sample-hold
attr source "count(packetPushed) - count(packetPopped) - count(packetRemoved) - count(packetDropped)"
attr title "queue length, vector"
vector 114 Ping攻击.路由器[0].eth[0].mac.queue packetPopped:vector(packetBytes) ETV
attr interpolationmode none
attr title "packet popped, vector(packetBytes)"
vector 115 Ping攻击.路由器[0].eth[0].mac.queue queueingTime:vector ETV
attr interpolationmode none
attr source queueingTime(packetPopped)
attr title "queueing times, vector"
attr unit s
vector 116 Ping攻击.路由器[1].eth[0].mac txPk:vector(packetBytes) ETV
attr interpolationmode none
attr source packetSentToLower
attr title "packets transmitted, vector(packetBytes)"
vector 117 Ping攻击.服务器.eth[0].mac txPk:vector(packetBytes) ETV
attr interpolationmode none
attr source packetSentToLower
attr title "packets transmitted, vector(packetBytes)"
vector 118 Ping攻击.正常客户[1].eth[0].mac rxPkOk:vector(packetBytes) ETV
attr interpolationmode none
attr source rxPkOk
attr title "packets received OK, vector(packetBytes)"
vector 119 Ping攻击.正常客户[1].eth[0].mac passedUpPk:vector(packetBytes) ETV
attr interpolationmode none
attr source packetSentToUpper
attr title "packets passed to higher layer, vector(packetBytes)"
vector 120 Ping攻击.路由器[2].eth[0].mac packetDropNotAddressedToUs:vector(packetBytes) ETV
attr interpolationmode none
attr source packetDropReasonIsNotAddressedToUs(packetDropped)
attr title "packet drop: not addressed to us, vector(packetBytes)"
vector 121 Ping攻击.正常客户[2].eth[0].mac rxPkOk:vector(packetBytes) ETV
attr interpolationmode none
attr source rxPkOk
attr title "packets received OK, vector(packetBytes)"
vector 122 Ping攻击.正常客户[2].eth[0].mac passedUpPk:vector(packetBytes) ETV
attr interpolationmode none
attr source packetSentToUpper
attr title "packets passed to higher layer, vector(packetBytes)"
vector 123 Ping攻击.正常客户[1].eth[0].encap decapPk:vector(packetBytes) ETV
attr interpolationmode none
attr source decapPk
attr title "packets decapsulated, vector(packetBytes)"
vector 124 Ping攻击.正常客户[2].eth[0].encap decapPk:vector(packetBytes) ETV
attr interpolationmode none
attr source decapPk
attr title "packets decapsulated, vector(packetBytes)"
vector 125 Ping攻击.被控主机[2].eth[0].mac packetDropNotAddressedToUs:vector(packetBytes) ETV
attr interpolationmode none
attr source packetDropReasonIsNotAddressedToUs(packetDropped)
attr title "packet drop: not addressed to us, vector(packetBytes)"
vector 126 Ping攻击.被控主机[4].eth[0].mac packetDropNotAddressedToUs:vector(packetBytes) ETV
attr interpolationmode none
attr source packetDropReasonIsNotAddressedToUs(packetDropped)
attr title "packet drop: not addressed to us, vector(packetBytes)"
vector 127 Ping攻击.被控主机[3].eth[0].mac packetDropNotAddressedToUs:vector(packetBytes) ETV
attr interpolationmode none
attr source packetDropReasonIsNotAddressedToUs(packetDropped)
attr title "packet drop: not addressed to us, vector(packetBytes)"
vector 128 Ping攻击.被控主机[5].eth[0].mac packetDropNotAddressedToUs:vector(packetBytes) ETV
attr interpolationmode none
attr source packetDropReasonIsNotAddressedToUs(packetDropped)
attr title "packet drop: not addressed to us, vector(packetBytes)"
vector 129 Ping攻击.路由器[0].eth[0].mac txPk:vector(packetBytes) ETV
attr interpolationmode none
attr source packetSentToLower
attr title "packets transmitted, vector(packetBytes)"
vector 130 Ping攻击.交换机.eth[0].mac rxPkOk:vector(packetBytes) ETV
attr interpolationmode none
attr source rxPkOk
attr title "packets received OK, vector(packetBytes)"
vector 131 Ping攻击.交换机.eth[0].mac passedUpPk:vector(packetBytes) ETV
attr interpolationmode none
attr source packetSentToUpper
attr title "packets passed to higher layer, vector(packetBytes)"
vector 132 Ping攻击.交换机.eth[1].mac packetReceivedFromUpper:vector(packetBytes) ETV
attr interpolationmode none
attr source packetReceivedFromUpper
attr title "packet bytes from higher layer, vector(packetBytes)"
vector 133 Ping攻击.交换机.eth[1].mac.queue packetPushed:vector(packetBytes) ETV
attr interpolationmode none
attr title "packet pushed, vector(packetBytes)"
vector 134 Ping攻击.交换机.eth[1].mac.queue queueLength:vector ETV
attr interpolationmode sample-hold
attr source "count(packetPushed) - count(packetPopped) - count(packetRemoved) - count(packetDropped)"
attr title "queue length, vector"
vector 135 Ping攻击.交换机.eth[1].mac.queue packetPopped:vector(packetBytes) ETV
attr interpolationmode none
attr title "packet popped, vector(packetBytes)"
vector 136 Ping攻击.交换机.eth[1].mac.queue queueingTime:vector ETV
attr interpolationmode none
attr source queueingTime(packetPopped)
attr title "queueing times, vector"
attr unit s
vector 137 Ping攻击.路由器[1].ppp[1].ppp rcvdPkFromHl:vector(packetBytes) ETV
attr interpolationmode none
attr source packetReceivedFromUpper
attr title "packets received from higher layer, vector(packetBytes)"
vector 138 Ping攻击.路由器[1].ppp[1].ppp.queue packetPushed:vector(packetBytes) ETV
attr interpolationmode none
attr title "packet pushed, vector(packetBytes)"
vector 139 Ping攻击.路由器[1].ppp[1].ppp.queue queueLength:vector ETV
attr interpolationmode sample-hold
attr source "count(packetPushed) - count(packetPopped) - count(packetRemoved) - count(packetDropped)"
attr title "queue length, vector"
vector 140 Ping攻击.路由器[1].ppp[1].ppp.queue packetPopped:vector(packetBytes) ETV
attr interpolationmode none
attr title "packet popped, vector(packetBytes)"
vector 141 Ping攻击.路由器[1].ppp[1].ppp.queue queueingTime:vector ETV
attr interpolationmode none
attr source queueingTime(packetPopped)
attr title "queueing times, vector"
attr unit s
vector 142 Ping攻击.路由器[1].ppp[1].ppp txPk:vector(packetBytes) ETV
attr interpolationmode none
attr source packetSentToLower
attr title "packets transmitted, vector(packetBytes)"
vector 143 Ping攻击.服务器.tcp.conn-3 rcvSeq:vector ETV
attr interpolationmode sample-hold
vector 144 Ping攻击.服务器.tcp.conn-3 rcvAck:vector ETV
attr interpolationmode sample-hold
vector 145 Ping攻击.服务器.tcp.conn-19 rcvAdv:vector ETV
attr interpolationmode sample-hold
vector 146 Ping攻击.服务器.tcp.conn-19 sndWnd:vector ETV
attr interpolationmode sample-hold
vector 147 Ping攻击.服务器.tcp.conn-19 tcpRcvQueueBytes:vector ETV
attr interpolationmode sample-hold
vector 148 Ping攻击.服务器.tcp.conn-19 rcvWnd:vector ETV
attr interpolationmode sample-hold
vector 149 Ping攻击.服务器.tcp.conn-19 sndAck:vector ETV
attr interpolationmode sample-hold
vector 150 Ping攻击.交换机.eth[1].mac txPk:vector(packetBytes) ETV
attr interpolationmode none
attr source packetSentToLower
attr title "packets transmitted, vector(packetBytes)"
vector 151 Ping攻击.正常客户[0].eth[0].mac rxPkOk:vector(packetBytes) ETV
attr interpolationmode none
attr source rxPkOk
attr title "packets received OK, vector(packetBytes)"
vector 152 Ping攻击.正常客户[0].eth[0].mac passedUpPk:vector(packetBytes) ETV
attr interpolationmode none
attr source packetSentToUpper
attr title "packets passed to higher layer, vector(packetBytes)"
vector 153 Ping攻击.正常客户[0].eth[0].encap decapPk:vector(packetBytes) ETV
attr interpolationmode none
attr source decapPk
attr title "packets decapsulated, vector(packetBytes)"
vector 154 Ping攻击.正常客户[2].tcp.conn-18 rcvSeq:vector ETV
attr interpolationmode sample-hold
vector 155 Ping攻击.正常客户[2].tcp.conn-18 rcvAck:vector ETV
attr interpolationmode sample-hold
vector 156 Ping攻击.正常客户[2].tcp.conn-18 sndWnd:vector ETV
attr interpolationmode sample-hold
vector 157 Ping攻击.正常客户[2].app[0] packetSent:vector(packetBytes) ETV
attr interpolationmode none
attr source packetSent
attr title "packets sent, vector(packetBytes)"
vector 158 Ping攻击.正常客户[2].tcp.conn-18 sndNxt:vector ETV
attr interpolationmode sample-hold
vector 159 Ping攻击.正常客户[2].tcp.conn-18 unacked:vector ETV
attr interpolationmode sample-hold
vector 160 Ping攻击.路由器[2].ppp[0].ppp rxPkOk:vector(packetBytes) ETV
attr interpolationmode none
attr source rxPkOk
attr title "packets received OK, vector(packetBytes)"
vector 161 Ping攻击.路由器[2].ppp[0].ppp passedUpPk:vector(packetBytes) ETV
attr interpolationmode none
attr source packetSentToUpper
attr title "packets passed to higher layer, vector(packetBytes)"
vector 162 Ping攻击.路由器[2].ipv4.arp arpRequestSent:vector(packetBytes) ETV
attr source arpRequestSent
attr title "ARP request sent, vector(packetBytes)"
vector 163 Ping攻击.路由器[2].eth[0].encap encapPk:vector(packetBytes) ETV
attr interpolationmode none
attr source encapPk
attr title "packets encapsulated, vector(packetBytes)"
vector 164 Ping攻击.路由器[2].eth[0].mac packetReceivedFromUpper:vector(packetBytes) ETV
attr interpolationmode none
attr source packetReceivedFromUpper
attr title "packet bytes from higher layer, vector(packetBytes)"
vector 165 Ping攻击.路由器[2].eth[0].mac.queue packetPushed:vector(packetBytes) ETV
attr interpolationmode none
attr title "packet pushed, vector(packetBytes)"
vector 166 Ping攻击.路由器[2].eth[0].mac.queue queueLength:vector ETV
attr interpolationmode sample-hold
attr source "count(packetPushed) - count(packetPopped) - count(packetRemoved) - count(packetDropped)"
attr title "queue length, vector"
vector 167 Ping攻击.路由器[2].eth[0].mac.queue packetPopped:vector(packetBytes) ETV
attr interpolationmode none
attr title "packet popped, vector(packetBytes)"
vector 168 Ping攻击.路由器[2].eth[0].mac.queue queueingTime:vector ETV
attr interpolationmode none
attr source queueingTime(packetPopped)
attr title "queueing times, vector"
attr unit s
vector 169 Ping攻击.服务器.tcp.conn-19 rcvSeq:vector ETV
attr interpolationmode sample-hold
vector 170 Ping攻击.服务器.tcp.conn-19 rcvAck:vector ETV
attr interpolationmode sample-hold
vector 171 Ping攻击.服务器.tcp.conn-19 unacked:vector ETV
attr interpolationmode sample-hold
vector 172 Ping攻击.路由器[2].eth[0].mac collision:vector ETV
attr interpolationmode none
attr title "collision, vector"
vector 173 Ping攻击.服务器.eth[0].mac collision:vector ETV
attr interpolationmode none
attr title "collision, vector"
vector 174 Ping攻击.正常客户[2].eth[0].mac collision:vector ETV
attr interpolationmode none
attr title "collision, vector"
vector 175 Ping攻击.被控主机[4].eth[0].mac collision:vector ETV
attr interpolationmode none
attr title "collision, vector"
vector 176 Ping攻击.被控主机[5].eth[0].mac collision:vector ETV
attr interpolationmode none
attr title "collision, vector"
vector 177 Ping攻击.路由器[2].eth[0].mac backoffSlotsGenerated:vector ETV
attr interpolationmode none
attr title "backoff, vector"
vector 178 Ping攻击.正常客户[2].eth[0].mac backoffSlotsGenerated:vector ETV
attr interpolationmode none
attr title "backoff, vector"
vector 179 Ping攻击.路由器[0].ppp[1].ppp rcvdPkFromHl:vector(packetBytes) ETV
attr interpolationmode none
attr source packetReceivedFromUpper
attr title "packets received from higher layer, vector(packetBytes)"
vector 180 Ping攻击.路由器[0].ppp[1].ppp.queue packetPushed:vector(packetBytes) ETV
attr interpolationmode none
attr title "packet pushed, vector(packetBytes)"
vector 181 Ping攻击.路由器[0].ppp[1].ppp.queue queueLength:vector ETV
attr interpolationmode sample-hold
attr source "count(packetPushed) - count(packetPopped) - count(packetRemoved) - count(packetDropped)"
attr title "queue length, vector"
vector 182 Ping攻击.路由器[0].ppp[1].ppp.queue packetPopped:vector(packetBytes) ETV
attr interpolationmode none
attr title "packet popped, vector(packetBytes)"
vector 183 Ping攻击.路由器[0].ppp[1].ppp.queue queueingTime:vector ETV
attr interpolationmode none
attr source queueingTime(packetPopped)
attr title "queueing times, vector"
attr unit s
vector 184 Ping攻击.路由器[0].ppp[1].ppp txPk:vector(packetBytes) ETV
attr interpolationmode none
attr source packetSentToLower
attr title "packets transmitted, vector(packetBytes)"
vector 185 Ping攻击.路由器[2].eth[0].mac txPk:vector(packetBytes) ETV
attr interpolationmode none
attr source packetSentToLower
attr title "packets transmitted, vector(packetBytes)"
vector 186 Ping攻击.服务器.eth[0].mac backoffSlotsGenerated:vector ETV
attr interpolationmode none
attr title "backoff, vector"
vector 187 Ping攻击.路由器[2].ppp[1].ppp rxPkOk:vector(packetBytes) ETV
attr interpolationmode none
attr source rxPkOk
attr title "packets received OK, vector(packetBytes)"
vector 188 Ping攻击.路由器[2].ppp[1].ppp passedUpPk:vector(packetBytes) ETV
attr interpolationmode none
attr source packetSentToUpper
attr title "packets passed to higher layer, vector(packetBytes)"
vector 189 Ping攻击.正常客户[2].eth[0].mac packetDropNotAddressedToUs:vector(packetBytes) ETV
attr interpolationmode none
attr source packetDropReasonIsNotAddressedToUs(packetDropped)
attr title "packet drop: not addressed to us, vector(packetBytes)"
vector 190 Ping攻击.服务器.tcp.conn-20 rcvAdv:vector ETV
attr interpolationmode sample-hold
vector 191 Ping攻击.服务器.tcp.conn-20 sndWnd:vector ETV
attr interpolationmode sample-hold
vector 192 Ping攻击.服务器.tcp.conn-20 tcpRcvQueueBytes:vector ETV
attr interpolationmode sample-hold
vector 193 Ping攻击.服务器.tcp.conn-20 rcvWnd:vector ETV
attr interpolationmode sample-hold
vector 194 Ping攻击.服务器.tcp.conn-20 sndAck:vector ETV
attr interpolationmode sample-hold
vector 195 Ping攻击.服务器.tcp.conn-19 dupAcks:vector ETV
attr interpolationmode sample-hold
vector 196 Ping攻击.服务器.app[0] packetReceived:vector(packetBytes) ETV
attr interpolationmode none
attr source packetReceived
attr title "packets received, vector(packetBytes)"
vector 197 Ping攻击.服务器.app[0] endToEndDelay:vector ETV
attr interpolationmode none
attr source dataAge(packetReceived)
attr title "end-to-end delay, vector"
attr unit s
vector 198 Ping攻击.服务器.app[0] packetSent:vector(packetBytes) ETV
attr interpolationmode none
attr source packetSent
attr title "packets sent, vector(packetBytes)"
vector 199 Ping攻击.服务器.tcp.conn-19 sndNxt:vector ETV
attr interpolationmode sample-hold
vector 200 Ping攻击.服务器.tcp.conn-21 rcvAdv:vector ETV
attr interpolationmode sample-hold
vector 201 Ping攻击.服务器.tcp.conn-21 sndWnd:vector ETV
attr interpolationmode sample-hold
vector 202 Ping攻击.服务器.tcp.conn-21 tcpRcvQueueBytes:vector ETV
attr interpolationmode sample-hold
vector 203 Ping攻击.服务器.tcp.conn-21 rcvWnd:vector ETV
attr interpolationmode sample-hold
vector 204 Ping攻击.服务器.tcp.conn-21 sndAck:vector ETV
attr interpolationmode sample-hold
vector 205 Ping攻击.路由器[2].ppp[0].ppp rcvdPkFromHl:vector(packetBytes) ETV
attr interpolationmode none
attr source packetReceivedFromUpper
attr title "packets received from higher layer, vector(packetBytes)"
vector 206 Ping攻击.路由器[2].ppp[0].ppp.queue packetPushed:vector(packetBytes) ETV
attr interpolationmode none
attr title "packet pushed, vector(packetBytes)"
vector 207 Ping攻击.路由器[2].ppp[0].ppp.queue queueLength:vector ETV
attr interpolationmode sample-hold
attr source "count(packetPushed) - count(packetPopped) - count(packetRemoved) - count(packetDropped)"
attr title "queue length, vector"
vector 208 Ping攻击.路由器[2].ppp[0].ppp.queue packetPopped:vector(packetBytes) ETV
attr interpolationmode none
attr title "packet popped, vector(packetBytes)"
vector 209 Ping攻击.路由器[2].ppp[0].ppp.queue queueingTime:vector ETV
attr interpolationmode none
attr source queueingTime(packetPopped)
attr title "queueing times, vector"
attr unit s
vector 210 Ping攻击.路由器[2].ppp[0].ppp txPk:vector(packetBytes) ETV
attr interpolationmode none
attr source packetSentToLower
attr title "packets transmitted, vector(packetBytes)"
vector 211 Ping攻击.正常客户[2].tcp.conn-18 rtt:vector ETV
attr interpolationmode sample-hold
vector 212 Ping攻击.正常客户[2].tcp.conn-18 srtt:vector ETV
attr interpolationmode sample-hold
vector 213 Ping攻击.正常客户[2].tcp.conn-18 rttvar:vector ETV
attr interpolationmode sample-hold
vector 214 Ping攻击.正常客户[2].tcp.conn-18 rto:vector ETV
attr interpolationmode sample-hold
vector 215 Ping攻击.正常客户[2].tcp.conn-18 cwnd:vector ETV
attr interpolationmode sample-hold
vector 216 Ping攻击.正常客户[2].tcp.conn-18 ssthresh:vector ETV
attr interpolationmode sample-hold
vector 217 Ping攻击.正常客户[2].tcp.conn-18 dupAcks:vector ETV
attr interpolationmode sample-hold
vector 218 Ping攻击.路由器[1].ppp[1].ppp rxPkOk:vector(packetBytes) ETV
attr interpolationmode none
attr source rxPkOk
attr title "packets received OK, vector(packetBytes)"
vector 219 Ping攻击.路由器[1].ppp[1].ppp passedUpPk:vector(packetBytes) ETV
attr interpolationmode none
attr source packetSentToUpper
attr title "packets passed to higher layer, vector(packetBytes)"
vector 220 Ping攻击.正常客户[1].tcp.conn-17 rcvSeq:vector ETV
attr interpolationmode sample-hold
vector 221 Ping攻击.正常客户[1].tcp.conn-17 rcvAck:vector ETV
attr interpolationmode sample-hold
vector 222 Ping攻击.正常客户[1].tcp.conn-17 sndWnd:vector ETV
attr interpolationmode sample-hold
vector 223 Ping攻击.正常客户[1].app[0] packetSent:vector(packetBytes) ETV
attr interpolationmode none
attr source packetSent
attr title "packets sent, vector(packetBytes)"
vector 224 Ping攻击.正常客户[1].tcp.conn-17 sndNxt:vector ETV
attr interpolationmode sample-hold
vector 225 Ping攻击.正常客户[1].tcp.conn-17 unacked:vector ETV
attr interpolationmode sample-hold
vector 226 Ping攻击.正常客户[2].app[0] packetReceived:vector(packetBytes) ETV
attr interpolationmode none
attr source packetReceived
attr title "packets received, vector(packetBytes)"
vector 227 Ping攻击.正常客户[2].app[0] endToEndDelay:vector ETV
attr interpolationmode none
attr source dataAge(packetReceived)
attr title "end-to-end delay, vector"
attr unit s
vector 228 Ping攻击.服务器.tcp.conn-20 rcvSeq:vector ETV
attr interpolationmode sample-hold
vector 229 Ping攻击.服务器.tcp.conn-20 rcvAck:vector ETV
attr interpolationmode sample-hold
vector 230 Ping攻击.服务器.tcp.conn-20 unacked:vector ETV
attr interpolationmode sample-hold
vector 231 Ping攻击.路由器[2].ppp[1].ppp rcvdPkFromHl:vector(packetBytes) ETV
attr interpolationmode none
attr source packetReceivedFromUpper
attr title "packets received from higher layer, vector(packetBytes)"
vector 232 Ping攻击.路由器[2].ppp[1].ppp.queue packetPushed:vector(packetBytes) ETV
attr interpolationmode none
attr title "packet pushed, vector(packetBytes)"
vector 233 Ping攻击.路由器[2].ppp[1].ppp.queue queueLength:vector ETV
attr interpolationmode sample-hold
attr source "count(packetPushed) - count(packetPopped) - count(packetRemoved) - count(packetDropped)"
attr title "queue length, vector"
vector 234 Ping攻击.路由器[2].ppp[1].ppp.queue packetPopped:vector(packetBytes) ETV
attr interpolationmode none
attr title "packet popped, vector(packetBytes)"
vector 235 Ping攻击.路由器[2].ppp[1].ppp.queue queueingTime:vector ETV
attr interpolationmode none
attr source queueingTime(packetPopped)
attr title "queueing times, vector"
attr unit s
vector 236 Ping攻击.路由器[2].ppp[1].ppp txPk:vector(packetBytes) ETV
attr interpolationmode none
attr source packetSentToLower
attr title "packets transmitted, vector(packetBytes)"
0	0	0	0
1	0	0	0
1	309	1.0034566	1
1	389	1.0042726	0
2	0	0	0
3	0	0	0
3	170	1.001920675	1
3	234	1.002736675	0
3	743	1.01955605	1
3	756	1.02030805	0
3	924	1.02818005	1
4	0	0	0
4	661	1.0174915	1
4	700	1.0183075	0
5	0	0	0
5	949	1.02877195	1
6	2	1	1
7	3	1	1
8	4	1	1
9	5	1	0
10	5	1	20384
11	5	1	20384
12	5	1	0
13	6	1	0
13	716	1.018883825	0
13	720	1.018883825	0
14	6	1	20384
14	716	1.018883825	271929
14	716	1.018883825	271929
14	720	1.018883825	271929
15	6	1	20384
15	716	1.018883825	20384
15	720	1.018883825	20384
16	6	1	0
16	716	1.018883825	251545
16	720	1.018883825	251545
17	7	1	0
17	209	1.0025929	0
17	213	1.0025929	0
17	766	1.0267875	0
17	766	1.0267875	0
17	771	1.0267875	0
18	7	1	20384
18	209	1.0025929	270865
18	209	1.0025929	270865
18	213	1.0025929	270865
18	766	1.0267875	271865
18	771	1.0267875	271865
19	7	1	20384
19	209	1.0025929	20384
19	213	1.0025929	20384
19	766	1.0267875	20384
19	771	1.0267875	20384
20	7	1	0
20	209	1.0025929	250481
20	213	1.0025929	250481
20	766	1.0267875	251481
20	771	1.0267875	251481
21	8	1	28
22	9	1	28
23	10	1	28
24	11	1	28
24	200	1.0023044	44
25	12	1	28
25	121	1.00124845	44
25	719	1.018883825	40
25	723	1.018883825	1040
26	13	1	28
26	122	1.00124845	44
26	212	1.0025929	40
26	216	1.0025929	1040
26	770	1.0267875	40
26	774	1.0267875	1040
27	14	1	46
27	201	1.0023044	62
28	14	1	64
28	201	1.0023044	64
29	14	1	1
29	14	1	0
29	201	1.0023044	1
29	201	1.0023044	0
30	14	1	64
30	201	1.0023044	64
31	14	1	0
31	201	1.0023044	0
32	15	1	46
32	123	1.00124845	62
32	721	1.018883825	58
32	724	1.018883825	1058
33	15	1	64
33	123	1.00124845	64
33	721	1.018883825	64
33	724	1.018883825	1058
34	15	1	1
34	15	1	0
34	123	1.00124845	1
34	123	1.00124845	0
34	721	1.018883825	1
34	721	1.018883825	0
34	724	1.018883825	1
34	738	1.019555825	0
35	15	1	64
35	123	1.00124845	64
35	721	1.018883825	64
35	738	1.019555825	1058
36	15	1	0
36	123	1.00124845	0
36	721	1.018883825	0
36	738	1.019555825	0.000672
37	16	1	46
37	124	1.00124845	62
37	214	1.0025929	58
37	217	1.0025929	1058
37	772	1.0267875	58
37	775	1.0267875	1058
38	16	1	64
38	124	1.00124845	64
38	214	1.0025929	64
38	217	1.0025929	1058
38	772	1.0267875	64
38	775	1.0267875	1058
39	16	1	1
39	16	1	0
39	124	1.00124845	1
39	124	1.00124845	0
39	214	1.0025929	1
39	214	1.0025929	0
39	217	1.0025929	1
39	245	1.0032649	0
39	772	1.0267875	1
39	772	1.0267875	0
39	775	1.0267875	1
40	16	1	64
40	124	1.00124845	64
40	214	1.0025929	64
40	245	1.0032649	1058
40	772	1.0267875	64
41	16	1	0
41	124	1.00124845	0
41	214	1.0025929	0
41	245	1.0032649	0.000672
41	772	1.0267875	0
42	34	1.000576	64
42	239	1.0028804	64
43	35	1.000576	64
43	160	1.00192045	64
43	738	1.019555825	64
43	919	1.028179825	1058
44	36	1.000576	64
44	161	1.00192045	64
44	245	1.0032649	64
44	552	1.0151548	1058
45	37	1.0005761	64
45	240	1.0028805	64
46	37	1.0005761	64
46	240	1.0028805	64
47	39	1.0005761	64
47	242	1.0028805	64
48	39	1.0005761	64
48	242	1.0028805	64
49	39	1.0005761	1
49	39	1.0005761	0
49	242	1.0028805	1
49	242	1.0028805	0
50	39	1.0005761	64
50	242	1.0028805	64
51	39	1.0005761	0
51	242	1.0028805	0
52	40	1.0005761	64
53	40	1.0005761	64
54	40	1.0005761	1
54	40	1.0005761	0
55	40	1.0005761	64
56	40	1.0005761	0
57	41	1.0005761	64
58	41	1.0005761	64
59	41	1.0005761	1
59	41	1.0005761	0
60	41	1.0005761	64
61	41	1.0005761	0
62	42	1.000576225	64
62	162	1.001920675	64
62	739	1.01955605	64
62	920	1.02818005	1058
63	42	1.000576225	64
63	162	1.001920675	64
63	739	1.01955605	64
63	920	1.02818005	1058
64	43	1.000576225	64
65	43	1.000576225	64
66	44	1.000576225	64
66	164	1.001920675	64
66	246	1.003265125	64
66	326	1.004065875	64
66	480	1.006179025	64
66	553	1.015155025	1058
66	631	1.016467475	64
66	909	1.028099725	64
67	44	1.000576225	64
67	164	1.001920675	64
67	246	1.003265125	64
67	326	1.004065875	64
67	480	1.006179025	64
67	553	1.015155025	1058
67	631	1.016467475	64
67	909	1.028099725	64
68	45	1.000576225	64
68	334	1.004065925	64
69	45	1.000576225	64
69	334	1.004065925	64
70	46	1.000576225	46
70	166	1.001920675	46
70	741	1.01955605	46
70	922	1.02818005	1040
71	47	1.000576225	46
72	48	1.000576225	46
72	167	1.001920675	46
72	248	1.003265125	46
72	327	1.004065875	46
72	481	1.006179025	46
72	555	1.015155025	1040
72	632	1.016467475	46
72	910	1.028099725	46
73	49	1.000576225	46
73	335	1.004065925	46
74	50	1.000576225	28
75	52	1.000576225	28
75	328	1.004065875	28
76	54	1.000576225	28
76	703	1.0183076	44
77	55	1.000576225	28
77	173	1.001920675	44
77	329	1.004065875	28
77	485	1.006179025	44
77	561	1.015155025	40
77	564	1.015155025	1040
77	636	1.016467475	44
78	56	1.000576225	46
78	704	1.0183076	62
79	56	1.000576225	64
79	704	1.0183076	64
80	56	1.000576225	1
80	56	1.000576225	0
80	704	1.0183076	1
80	704	1.0183076	0
81	56	1.000576225	64
81	704	1.0183076	64
82	56	1.000576225	0
82	704	1.0183076	0
83	57	1.000576225	46
83	174	1.001920675	62
83	330	1.004065875	46
83	486	1.006179025	62
83	563	1.015155025	58
83	565	1.015155025	1058
83	637	1.016467475	62
84	57	1.000576225	64
84	174	1.001920675	64
84	330	1.004065875	64
84	486	1.006179025	64
84	563	1.015155025	64
84	565	1.015155025	1058
84	637	1.016467475	64
85	57	1.000576225	1
85	57	1.000576225	0
85	174	1.001920675	1
85	174	1.001920675	0
85	330	1.004065875	1
85	330	1.004065875	0
85	486	1.006179025	1
85	486	1.006179025	0
85	563	1.015155025	1
85	565	1.015155025	2
85	637	1.016467475	3
85	656	1.017491275	2
85	678	1.018163275	1
85	761	1.026787275	0
86	57	1.000576225	64
86	174	1.001920675	64
86	330	1.004065875	64
86	486	1.006179025	64
86	656	1.017491275	64
86	678	1.018163275	1058
86	761	1.026787275	64
87	57	1.000576225	0
87	174	1.001920675	0
87	330	1.004065875	0
87	486	1.006179025	0
87	656	1.017491275	0.00233625
87	678	1.018163275	0.00300825
87	761	1.026787275	0.0103198
88	58	1.00057625	64
89	58	1.00057625	64
90	59	1.00057625	64
90	407	1.00486655	64
90	657	1.0174915	64
90	945	1.02877195	64
91	59	1.00057625	64
91	407	1.00486655	64
91	657	1.0174915	64
91	945	1.02877195	64
92	60	1.00057625	64
92	337	1.00406595	64
93	60	1.00057625	64
93	337	1.00406595	64
94	61	1.00057625	46
95	62	1.00057625	46
95	409	1.00486655	46
95	659	1.0174915	46
95	947	1.02877195	46
96	63	1.00057625	46
96	338	1.00406595	46
97	94	1.0011521	64
97	305	1.0034565	64
98	95	1.0011521	64
99	96	1.0011521	64
100	97	1.0011522	64
100	306	1.0034566	64
101	97	1.0011522	64
101	306	1.0034566	64
102	98	1.0011522	64
103	98	1.0011522	64
104	99	1.0011522	64
105	99	1.0011522	64
106	100	1.0011522	46
106	307	1.0034566	46
107	101	1.0011522	46
108	102	1.0011522	46
109	103	1.0011522	28
110	106	1.0011522	28
111	107	1.0011522	46
112	107	1.0011522	64
113	107	1.0011522	1
113	107	1.0011522	0
114	107	1.0011522	64
115	107	1.0011522	0
116	112	1.001248225	64
116	712	1.0188836	64
117	113	1.001248225	64
117	204	1.002592675	64
117	406	1.004866325	64
117	656	1.017491275	64
117	678	1.018163275	64
117	761	1.026787275	1058
117	944	1.028771725	64
118	114	1.00124845	64
118	713	1.018883825	64
119	114	1.00124845	64
119	713	1.018883825	64
120	115	1.00124845	64
120	176	1.0019207	64
120	205	1.0025929	64
120	254	1.00326515	64
120	566	1.01515505	1058
120	679	1.0181635	64
120	762	1.0267875	1058
121	116	1.00124845	64
121	206	1.0025929	64
121	331	1.0040659	64
121	680	1.0181635	64
121	763	1.0267875	1058
122	116	1.00124845	64
122	206	1.0025929	64
122	331	1.0040659	64
122	680	1.0181635	64
122	763	1.0267875	1058
123	117	1.00124845	46
123	714	1.018883825	46
124	118	1.00124845	46
124	207	1.0025929	46
124	332	1.0040659	46
124	681	1.0181635	46
124	764	1.0267875	1040
125	125	1.001248475	64
125	163	1.001920675	64
125	725	1.01888385	64
125	740	1.01955605	64
125	921	1.02818005	1058
126	126	1.001248475	64
126	165	1.001920675	64
126	218	1.002592925	64
126	247	1.003265125	64
126	415	1.004866575	64
126	488	1.006179075	64
126	554	1.015155025	1058
126	639	1.016467525	64
126	662	1.017491525	64
126	684	1.018163525	64
126	776	1.026787525	1058
126	917	1.028099775	64
126	950	1.028771975	64
127	127	1.0012485	64
127	175	1.0019207	64
127	726	1.018883875	64
127	744	1.019556075	64
127	925	1.028180075	1058
128	128	1.0012485	64
128	177	1.0019207	64
128	219	1.00259295	64
128	255	1.00326515	64
128	416	1.0048666	64
128	489	1.0061791	64
128	567	1.01515505	1058
128	640	1.01646755	64
128	663	1.01749155	64
128	685	1.01816355	64
128	777	1.02678755	1058
128	918	1.0280998	64
128	951	1.028772	64
129	154	1.0017282	64
130	155	1.0017283	64
131	155	1.0017283	64
132	157	1.0017283	64
133	157	1.0017283	64
134	157	1.0017283	1
134	157	1.0017283	0
135	157	1.0017283	64
136	157	1.0017283	0
137	170	1.001920675	44
137	743	1.01955605	40
137	924	1.02818005	1040
138	170	1.001920675	44
138	743	1.01955605	40
138	924	1.02818005	1040
139	170	1.001920675	1
139	170	1.001920675	0
139	743	1.01955605	1
139	743	1.01955605	0
139	924	1.02818005	1
139	924	1.02818005	0
140	170	1.001920675	44
140	743	1.01955605	40
140	924	1.02818005	1040
141	170	1.001920675	0
141	743	1.01955605	0
141	924	1.02818005	0
142	170	1.001920675	51
142	743	1.01955605	47
142	924	1.02818005	1047
143	171	1.001920675	250000
143	483	1.006179025	250000
143	634	1.016467475	250000
144	171	1.001920675	0
144	483	1.006179025	0
144	634	1.016467475	0
145	171	1.001920675	270385
145	171	1.001920675	270385
145	557	1.015155025	271385
145	560	1.015155025	271385
146	171	1.001920675	20384
146	250	1.003265125	20384
147	171	1.001920675	0
147	557	1.015155025	0
147	557	1.015155025	0
147	560	1.015155025	0
148	171	1.001920675	20384
148	557	1.015155025	20384
148	560	1.015155025	20384
149	171	1.001920675	250001
149	557	1.015155025	251001
149	560	1.015155025	251001
150	196	1.0023043	64
151	197	1.0023044	64
152	197	1.0023044	64
153	198	1.0023044	46
154	209	1.0025929	250480
154	683	1.0181635	250481
154	766	1.0267875	250481
155	209	1.0025929	250001
155	683	1.0181635	251001
155	766	1.0267875	251001
156	209	1.0025929	20384
156	683	1.0181635	20384
157	211	1.0025929	1000
157	769	1.0267875	1000
158	213	1.0025929	250001
158	771	1.0267875	251001
159	213	1.0025929	1000
159	683	1.0181635	0
159	771	1.0267875	1000
160	235	1.002736775	51
160	757	1.02030815	47
161	235	1.002736775	44
161	757	1.02030815	40
162	236	1.002736775	28
163	237	1.002736775	28
163	411	1.00486655	44
163	412	1.00486655	44
163	759	1.02030815	40
164	238	1.002736775	46
164	413	1.00486655	62
164	414	1.00486655	62
164	760	1.02030815	58
165	238	1.002736775	64
165	413	1.00486655	64
165	414	1.00486655	64
165	760	1.02030815	64
166	238	1.002736775	1
166	238	1.002736775	0
166	413	1.00486655	1
166	413	1.00486655	0
166	414	1.00486655	1
166	479	1.0061788	0
166	760	1.02030815	1
166	760	1.02030815	0
167	238	1.002736775	64
167	413	1.00486655	64
167	479	1.0061788	64
167	760	1.02030815	64
168	238	1.002736775	0
168	413	1.00486655	0
168	479	1.0061788	0.00131225
168	760	1.02030815	0
169	250	1.003265125	250001
169	557	1.015155025	250001
170	250	1.003265125	250481
170	557	1.015155025	250481
171	250	1.003265125	0
171	560	1.015155025	1000
172	268	1.00336115	1
172	360	1.00416215	1
172	436	1.0049628	1
172	513	1.00627525	1
172	582	1.01525125	1
172	786	1.0268835	1
172	874	1.0270122	1
173	280	1.003361375	1
173	357	1.004162125	1
173	433	1.004962775	1
173	497	1.006275025	1
173	585	1.015251275	1
173	812	1.026883725	1
173	870	1.027012175	1
174	282	1.0033614	1
174	356	1.0041621	1
174	435	1.0049628	1
174	514	1.00627525	1
174	587	1.0152513	1
174	787	1.0268835	1
174	855	1.02701195	1
175	284	1.003361425	1
175	359	1.004162125	1
175	438	1.004962825	1
175	517	1.006275275	1
175	589	1.015251325	1
175	814	1.026883725	1
175	871	1.027012175	1
176	286	1.00336145	1
176	362	1.00416215	1
176	439	1.00496285	1
176	519	1.0062753	1
176	591	1.01525135	1
176	820	1.02688375	1
176	875	1.0270122	1
177	297	1.00339315	0
177	459	1.0049948	1
177	531	1.00630725	1
177	609	1.01528325	1
177	837	1.0269155	1
178	299	1.0033934	1
178	381	1.0041941	1
178	458	1.0049948	3
178	838	1.0269155	0
178	887	1.02704395	3
179	309	1.0034566	44
180	309	1.0034566	44
181	309	1.0034566	1
181	309	1.0034566	0
182	309	1.0034566	44
183	309	1.0034566	0
184	309	1.0034566	51
185	325	1.00406565	64
185	479	1.0061788	64
185	630	1.01646725	64
185	908	1.0280995	64
186	382	1.004194125	0
186	530	1.006307025	1
186	610	1.015283275	3
186	840	1.026915725	0
186	888	1.027044175	2
187	390	1.0042727	51
188	390	1.0042727	44
189	408	1.00486655	64
189	487	1.00617905	64
189	638	1.0164675	64
189	658	1.0174915	64
189	916	1.02809975	64
189	946	1.02877195	64
190	483	1.006179025	270385
190	483	1.006179025	270385
191	483	1.006179025	20384
191	912	1.028099725	20384
192	483	1.006179025	0
193	483	1.006179025	20384
194	483	1.006179025	250001
195	557	1.015155025	0
196	558	1.015155025	1000
197	558	1.015155025	0.012562125
198	558	1.015155025	1000
199	560	1.015155025	250481
200	634	1.016467475	270385
200	634	1.016467475	270385
201	634	1.016467475	20384
202	634	1.016467475	0
203	634	1.016467475	20384
204	634	1.016467475	250001
205	661	1.0174915	44
206	661	1.0174915	44
207	661	1.0174915	1
207	661	1.0174915	0
208	661	1.0174915	44
209	661	1.0174915	0
210	661	1.0174915	51
211	683	1.0181635	0.0155706
212	683	1.0181635	0.001946325
213	683	1.0181635	0.658196325
214	683	1.0181635	2.634731625
215	683	1.0181635	2912
216	683	1.0181635	4294967295
217	683	1.0181635	0
217	766	1.0267875	0
218	701	1.0183076	51
219	701	1.0183076	44
220	716	1.018883825	251544
221	716	1.018883825	250001
222	716	1.018883825	20384
223	718	1.018883825	1000
224	720	1.018883825	250001
225	720	1.018883825	1000
226	767	1.0267875	1000
227	767	1.0267875	0.011632475
228	912	1.028099725	250001
229	912	1.028099725	251545
230	912	1.028099725	0
231	949	1.02877195	44
232	949	1.02877195	44
233	949	1.02877195	1
233	949	1.02877195	0
234	949	1.02877195	44
235	949	1.02877195	0
236	949	1.02877195	51

