file 7306885 1651909675                                         
version 2
run General-0-20220507-15:47:45-86321
attr configname General
attr datetime 20220507-15:47:45
attr experiment General
attr inifile TcpSynAttack.ini
attr iterationvars ""
attr iterationvarsf ""
attr measurement ""
attr network TcpSynAttack
attr processid 86321
attr repetition 0
attr replication #0
attr resultdir results
attr runnumber 0
attr seedset 0
param *.numSubnet*Attackers 2
param *.总线[0].positions "\"40\""
param *.总线[1].positions "\"33\""
param *.被控主机[*].numApps 1
param *.被控主机[*].tcp.typename "\"DSAK_Tcp\""
param *.被控主机[*].app[0].typename "\"DSAK_TcpSynAttackApp\""
param *.被控主机[*].app[0].connectAddress "\"服务器\""
param *.被控主机[*].app[0].connectPort 1000
param *.服务器.numApps 1
param *.服务器.app[0].typename "\"TcpGenericServerApp\""
param *.服务器.app[0].localPort 1000

vector 0 TcpSynAttack.路由器[0].ppp[0].ppp transmissionState:vector ETV
attr interpolationmode sample-hold
attr source transmissionStateChanged
attr title "tx state, vector"
vector 1 TcpSynAttack.路由器[0].ppp[1].ppp transmissionState:vector ETV
attr interpolationmode sample-hold
attr source transmissionStateChanged
attr title "tx state, vector"
vector 2 TcpSynAttack.路由器[1].ppp[0].ppp transmissionState:vector ETV
attr interpolationmode sample-hold
attr source transmissionStateChanged
attr title "tx state, vector"
vector 3 TcpSynAttack.路由器[1].ppp[1].ppp transmissionState:vector ETV
attr interpolationmode sample-hold
attr source transmissionStateChanged
attr title "tx state, vector"
vector 4 TcpSynAttack.路由器[2].ppp[0].ppp transmissionState:vector ETV
attr interpolationmode sample-hold
attr source transmissionStateChanged
attr title "tx state, vector"
vector 5 TcpSynAttack.路由器[2].ppp[1].ppp transmissionState:vector ETV
attr interpolationmode sample-hold
attr source transmissionStateChanged
attr title "tx state, vector"
vector 6 TcpSynAttack.被控主机[0].tcp.conn-13 tcpRcvQueueBytes:vector ETV
attr interpolationmode sample-hold
vector 7 TcpSynAttack.被控主机[0].tcp.conn-13 rcvAdv:vector ETV
attr interpolationmode sample-hold
vector 8 TcpSynAttack.被控主机[0].tcp.conn-13 rcvWnd:vector ETV
attr interpolationmode sample-hold
vector 9 TcpSynAttack.被控主机[0].tcp.conn-13 sndAck:vector ETV
attr interpolationmode sample-hold
vector 10 TcpSynAttack.被控主机[1].tcp.conn-14 tcpRcvQueueBytes:vector ETV
attr interpolationmode sample-hold
vector 11 TcpSynAttack.被控主机[1].tcp.conn-14 rcvAdv:vector ETV
attr interpolationmode sample-hold
vector 12 TcpSynAttack.被控主机[1].tcp.conn-14 rcvWnd:vector ETV
attr interpolationmode sample-hold
vector 13 TcpSynAttack.被控主机[1].tcp.conn-14 sndAck:vector ETV
attr interpolationmode sample-hold
vector 14 TcpSynAttack.被控主机[2].tcp.conn-15 tcpRcvQueueBytes:vector ETV
attr interpolationmode sample-hold
vector 15 TcpSynAttack.被控主机[2].tcp.conn-15 rcvAdv:vector ETV
attr interpolationmode sample-hold
vector 16 TcpSynAttack.被控主机[2].tcp.conn-15 rcvWnd:vector ETV
attr interpolationmode sample-hold
vector 17 TcpSynAttack.被控主机[2].tcp.conn-15 sndAck:vector ETV
attr interpolationmode sample-hold
vector 18 TcpSynAttack.被控主机[3].tcp.conn-16 tcpRcvQueueBytes:vector ETV
attr interpolationmode sample-hold
vector 19 TcpSynAttack.被控主机[3].tcp.conn-16 rcvAdv:vector ETV
attr interpolationmode sample-hold
vector 20 TcpSynAttack.被控主机[3].tcp.conn-16 rcvWnd:vector ETV
attr interpolationmode sample-hold
vector 21 TcpSynAttack.被控主机[3].tcp.conn-16 sndAck:vector ETV
attr interpolationmode sample-hold
vector 22 TcpSynAttack.被控主机[4].tcp.conn-17 tcpRcvQueueBytes:vector ETV
attr interpolationmode sample-hold
vector 23 TcpSynAttack.被控主机[4].tcp.conn-17 rcvAdv:vector ETV
attr interpolationmode sample-hold
vector 24 TcpSynAttack.被控主机[4].tcp.conn-17 rcvWnd:vector ETV
attr interpolationmode sample-hold
vector 25 TcpSynAttack.被控主机[4].tcp.conn-17 sndAck:vector ETV
attr interpolationmode sample-hold
vector 26 TcpSynAttack.被控主机[5].tcp.conn-18 tcpRcvQueueBytes:vector ETV
attr interpolationmode sample-hold
vector 27 TcpSynAttack.被控主机[5].tcp.conn-18 rcvAdv:vector ETV
attr interpolationmode sample-hold
vector 28 TcpSynAttack.被控主机[5].tcp.conn-18 rcvWnd:vector ETV
attr interpolationmode sample-hold
vector 29 TcpSynAttack.被控主机[5].tcp.conn-18 sndAck:vector ETV
attr interpolationmode sample-hold
vector 30 TcpSynAttack.被控主机[0].ipv4.arp arpRequestSent:vector(packetBytes) ETV
attr source arpRequestSent
attr title "ARP request sent, vector(packetBytes)"
vector 31 TcpSynAttack.被控主机[1].ipv4.arp arpRequestSent:vector(packetBytes) ETV
attr source arpRequestSent
attr title "ARP request sent, vector(packetBytes)"
vector 32 TcpSynAttack.被控主机[2].ipv4.arp arpRequestSent:vector(packetBytes) ETV
attr source arpRequestSent
attr title "ARP request sent, vector(packetBytes)"
vector 33 TcpSynAttack.被控主机[3].ipv4.arp arpRequestSent:vector(packetBytes) ETV
attr source arpRequestSent
attr title "ARP request sent, vector(packetBytes)"
vector 34 TcpSynAttack.被控主机[4].ipv4.arp arpRequestSent:vector(packetBytes) ETV
attr source arpRequestSent
attr title "ARP request sent, vector(packetBytes)"
vector 35 TcpSynAttack.被控主机[5].ipv4.arp arpRequestSent:vector(packetBytes) ETV
attr source arpRequestSent
attr title "ARP request sent, vector(packetBytes)"
vector 36 TcpSynAttack.被控主机[0].eth[0].encap encapPk:vector(packetBytes) ETV
attr interpolationmode none
attr source encapPk
attr title "packets encapsulated, vector(packetBytes)"
vector 37 TcpSynAttack.被控主机[1].eth[0].encap encapPk:vector(packetBytes) ETV
attr interpolationmode none
attr source encapPk
attr title "packets encapsulated, vector(packetBytes)"
vector 38 TcpSynAttack.被控主机[2].eth[0].encap encapPk:vector(packetBytes) ETV
attr interpolationmode none
attr source encapPk
attr title "packets encapsulated, vector(packetBytes)"
vector 39 TcpSynAttack.被控主机[3].eth[0].encap encapPk:vector(packetBytes) ETV
attr interpolationmode none
attr source encapPk
attr title "packets encapsulated, vector(packetBytes)"
vector 40 TcpSynAttack.被控主机[4].eth[0].encap encapPk:vector(packetBytes) ETV
attr interpolationmode none
attr source encapPk
attr title "packets encapsulated, vector(packetBytes)"
vector 41 TcpSynAttack.被控主机[5].eth[0].encap encapPk:vector(packetBytes) ETV
attr interpolationmode none
attr source encapPk
attr title "packets encapsulated, vector(packetBytes)"
vector 42 TcpSynAttack.被控主机[0].eth[0].mac packetReceivedFromUpper:vector(packetBytes) ETV
attr interpolationmode none
attr source packetReceivedFromUpper
attr title "packet bytes from higher layer, vector(packetBytes)"
vector 43 TcpSynAttack.被控主机[0].eth[0].mac.queue packetPushed:vector(packetBytes) ETV
attr interpolationmode none
attr title "packet pushed, vector(packetBytes)"
vector 44 TcpSynAttack.被控主机[0].eth[0].mac.queue queueLength:vector ETV
attr interpolationmode sample-hold
attr source "count(packetPushed) - count(packetPopped) - count(packetRemoved) - count(packetDropped)"
attr title "queue length, vector"
vector 45 TcpSynAttack.被控主机[0].eth[0].mac.queue packetPopped:vector(packetBytes) ETV
attr interpolationmode none
attr title "packet popped, vector(packetBytes)"
vector 46 TcpSynAttack.被控主机[0].eth[0].mac.queue queueingTime:vector ETV
attr interpolationmode none
attr source queueingTime(packetPopped)
attr title "queueing times, vector"
attr unit s
vector 47 TcpSynAttack.被控主机[1].eth[0].mac packetReceivedFromUpper:vector(packetBytes) ETV
attr interpolationmode none
attr source packetReceivedFromUpper
attr title "packet bytes from higher layer, vector(packetBytes)"
vector 48 TcpSynAttack.被控主机[1].eth[0].mac.queue packetPushed:vector(packetBytes) ETV
attr interpolationmode none
attr title "packet pushed, vector(packetBytes)"
vector 49 TcpSynAttack.被控主机[1].eth[0].mac.queue queueLength:vector ETV
attr interpolationmode sample-hold
attr source "count(packetPushed) - count(packetPopped) - count(packetRemoved) - count(packetDropped)"
attr title "queue length, vector"
vector 50 TcpSynAttack.被控主机[1].eth[0].mac.queue packetPopped:vector(packetBytes) ETV
attr interpolationmode none
attr title "packet popped, vector(packetBytes)"
vector 51 TcpSynAttack.被控主机[1].eth[0].mac.queue queueingTime:vector ETV
attr interpolationmode none
attr source queueingTime(packetPopped)
attr title "queueing times, vector"
attr unit s
vector 52 TcpSynAttack.被控主机[2].eth[0].mac packetReceivedFromUpper:vector(packetBytes) ETV
attr interpolationmode none
attr source packetReceivedFromUpper
attr title "packet bytes from higher layer, vector(packetBytes)"
vector 53 TcpSynAttack.被控主机[2].eth[0].mac.queue packetPushed:vector(packetBytes) ETV
attr interpolationmode none
attr title "packet pushed, vector(packetBytes)"
vector 54 TcpSynAttack.被控主机[2].eth[0].mac.queue queueLength:vector ETV
attr interpolationmode sample-hold
attr source "count(packetPushed) - count(packetPopped) - count(packetRemoved) - count(packetDropped)"
attr title "queue length, vector"
vector 55 TcpSynAttack.被控主机[2].eth[0].mac.queue packetPopped:vector(packetBytes) ETV
attr interpolationmode none
attr title "packet popped, vector(packetBytes)"
vector 56 TcpSynAttack.被控主机[2].eth[0].mac.queue queueingTime:vector ETV
attr interpolationmode none
attr source queueingTime(packetPopped)
attr title "queueing times, vector"
attr unit s
vector 57 TcpSynAttack.被控主机[3].eth[0].mac packetReceivedFromUpper:vector(packetBytes) ETV
attr interpolationmode none
attr source packetReceivedFromUpper
attr title "packet bytes from higher layer, vector(packetBytes)"
vector 58 TcpSynAttack.被控主机[3].eth[0].mac.queue packetPushed:vector(packetBytes) ETV
attr interpolationmode none
attr title "packet pushed, vector(packetBytes)"
vector 59 TcpSynAttack.被控主机[3].eth[0].mac.queue queueLength:vector ETV
attr interpolationmode sample-hold
attr source "count(packetPushed) - count(packetPopped) - count(packetRemoved) - count(packetDropped)"
attr title "queue length, vector"
vector 60 TcpSynAttack.被控主机[3].eth[0].mac.queue packetPopped:vector(packetBytes) ETV
attr interpolationmode none
attr title "packet popped, vector(packetBytes)"
vector 61 TcpSynAttack.被控主机[3].eth[0].mac.queue queueingTime:vector ETV
attr interpolationmode none
attr source queueingTime(packetPopped)
attr title "queueing times, vector"
attr unit s
vector 62 TcpSynAttack.被控主机[4].eth[0].mac packetReceivedFromUpper:vector(packetBytes) ETV
attr interpolationmode none
attr source packetReceivedFromUpper
attr title "packet bytes from higher layer, vector(packetBytes)"
vector 63 TcpSynAttack.被控主机[4].eth[0].mac.queue packetPushed:vector(packetBytes) ETV
attr interpolationmode none
attr title "packet pushed, vector(packetBytes)"
vector 64 TcpSynAttack.被控主机[4].eth[0].mac.queue queueLength:vector ETV
attr interpolationmode sample-hold
attr source "count(packetPushed) - count(packetPopped) - count(packetRemoved) - count(packetDropped)"
attr title "queue length, vector"
vector 65 TcpSynAttack.被控主机[4].eth[0].mac.queue packetPopped:vector(packetBytes) ETV
attr interpolationmode none
attr title "packet popped, vector(packetBytes)"
vector 66 TcpSynAttack.被控主机[4].eth[0].mac.queue queueingTime:vector ETV
attr interpolationmode none
attr source queueingTime(packetPopped)
attr title "queueing times, vector"
attr unit s
vector 67 TcpSynAttack.被控主机[5].eth[0].mac packetReceivedFromUpper:vector(packetBytes) ETV
attr interpolationmode none
attr source packetReceivedFromUpper
attr title "packet bytes from higher layer, vector(packetBytes)"
vector 68 TcpSynAttack.被控主机[5].eth[0].mac.queue packetPushed:vector(packetBytes) ETV
attr interpolationmode none
attr title "packet pushed, vector(packetBytes)"
vector 69 TcpSynAttack.被控主机[5].eth[0].mac.queue queueLength:vector ETV
attr interpolationmode sample-hold
attr source "count(packetPushed) - count(packetPopped) - count(packetRemoved) - count(packetDropped)"
attr title "queue length, vector"
vector 70 TcpSynAttack.被控主机[5].eth[0].mac.queue packetPopped:vector(packetBytes) ETV
attr interpolationmode none
attr title "packet popped, vector(packetBytes)"
vector 71 TcpSynAttack.被控主机[5].eth[0].mac.queue queueingTime:vector ETV
attr interpolationmode none
attr source queueingTime(packetPopped)
attr title "queueing times, vector"
attr unit s
vector 72 TcpSynAttack.被控主机[0].eth[0].mac txPk:vector(packetBytes) ETV
attr interpolationmode none
attr source packetSentToLower
attr title "packets transmitted, vector(packetBytes)"
vector 73 TcpSynAttack.被控主机[1].eth[0].mac txPk:vector(packetBytes) ETV
attr interpolationmode none
attr source packetSentToLower
attr title "packets transmitted, vector(packetBytes)"
vector 74 TcpSynAttack.被控主机[2].eth[0].mac txPk:vector(packetBytes) ETV
attr interpolationmode none
attr source packetSentToLower
attr title "packets transmitted, vector(packetBytes)"
vector 75 TcpSynAttack.被控主机[3].eth[0].mac txPk:vector(packetBytes) ETV
attr interpolationmode none
attr source packetSentToLower
attr title "packets transmitted, vector(packetBytes)"
vector 76 TcpSynAttack.被控主机[4].eth[0].mac txPk:vector(packetBytes) ETV
attr interpolationmode none
attr source packetSentToLower
attr title "packets transmitted, vector(packetBytes)"
vector 77 TcpSynAttack.被控主机[5].eth[0].mac txPk:vector(packetBytes) ETV
attr interpolationmode none
attr source packetSentToLower
attr title "packets transmitted, vector(packetBytes)"
vector 78 TcpSynAttack.交换机[0].eth[1].mac rxPkOk:vector(packetBytes) ETV
attr interpolationmode none
attr source rxPkOk
attr title "packets received OK, vector(packetBytes)"
vector 79 TcpSynAttack.交换机[0].eth[1].mac passedUpPk:vector(packetBytes) ETV
attr interpolationmode none
attr source packetSentToUpper
attr title "packets passed to higher layer, vector(packetBytes)"
vector 80 TcpSynAttack.交换机[0].eth[2].mac rxPkOk:vector(packetBytes) ETV
attr interpolationmode none
attr source rxPkOk
attr title "packets received OK, vector(packetBytes)"
vector 81 TcpSynAttack.交换机[0].eth[2].mac passedUpPk:vector(packetBytes) ETV
attr interpolationmode none
attr source packetSentToUpper
attr title "packets passed to higher layer, vector(packetBytes)"
vector 82 TcpSynAttack.交换机[1].eth[2].mac rxPkOk:vector(packetBytes) ETV
attr interpolationmode none
attr source rxPkOk
attr title "packets received OK, vector(packetBytes)"
vector 83 TcpSynAttack.交换机[1].eth[2].mac passedUpPk:vector(packetBytes) ETV
attr interpolationmode none
attr source packetSentToUpper
attr title "packets passed to higher layer, vector(packetBytes)"
vector 84 TcpSynAttack.交换机[1].eth[3].mac rxPkOk:vector(packetBytes) ETV
attr interpolationmode none
attr source rxPkOk
attr title "packets received OK, vector(packetBytes)"
vector 85 TcpSynAttack.交换机[1].eth[3].mac passedUpPk:vector(packetBytes) ETV
attr interpolationmode none
attr source packetSentToUpper
attr title "packets passed to higher layer, vector(packetBytes)"
vector 86 TcpSynAttack.交换机[2].eth[1].mac rxPkOk:vector(packetBytes) ETV
attr interpolationmode none
attr source rxPkOk
attr title "packets received OK, vector(packetBytes)"
vector 87 TcpSynAttack.交换机[2].eth[1].mac passedUpPk:vector(packetBytes) ETV
attr interpolationmode none
attr source packetSentToUpper
attr title "packets passed to higher layer, vector(packetBytes)"
vector 88 TcpSynAttack.交换机[2].eth[2].mac rxPkOk:vector(packetBytes) ETV
attr interpolationmode none
attr source rxPkOk
attr title "packets received OK, vector(packetBytes)"
vector 89 TcpSynAttack.交换机[2].eth[2].mac passedUpPk:vector(packetBytes) ETV
attr interpolationmode none
attr source packetSentToUpper
attr title "packets passed to higher layer, vector(packetBytes)"
vector 90 TcpSynAttack.交换机[0].eth[0].mac packetReceivedFromUpper:vector(packetBytes) ETV
attr interpolationmode none
attr source packetReceivedFromUpper
attr title "packet bytes from higher layer, vector(packetBytes)"
vector 91 TcpSynAttack.交换机[0].eth[0].mac.queue packetPushed:vector(packetBytes) ETV
attr interpolationmode none
attr title "packet pushed, vector(packetBytes)"
vector 92 TcpSynAttack.交换机[0].eth[0].mac.queue queueLength:vector ETV
attr interpolationmode sample-hold
attr source "count(packetPushed) - count(packetPopped) - count(packetRemoved) - count(packetDropped)"
attr title "queue length, vector"
vector 93 TcpSynAttack.交换机[0].eth[0].mac.queue packetPopped:vector(packetBytes) ETV
attr interpolationmode none
attr title "packet popped, vector(packetBytes)"
vector 94 TcpSynAttack.交换机[0].eth[0].mac.queue queueingTime:vector ETV
attr interpolationmode none
attr source queueingTime(packetPopped)
attr title "queueing times, vector"
attr unit s
vector 95 TcpSynAttack.交换机[0].eth[2].mac packetReceivedFromUpper:vector(packetBytes) ETV
attr interpolationmode none
attr source packetReceivedFromUpper
attr title "packet bytes from higher layer, vector(packetBytes)"
vector 96 TcpSynAttack.交换机[0].eth[2].mac.queue packetPushed:vector(packetBytes) ETV
attr interpolationmode none
attr title "packet pushed, vector(packetBytes)"
vector 97 TcpSynAttack.交换机[0].eth[2].mac.queue queueLength:vector ETV
attr interpolationmode sample-hold
attr source "count(packetPushed) - count(packetPopped) - count(packetRemoved) - count(packetDropped)"
attr title "queue length, vector"
vector 98 TcpSynAttack.交换机[0].eth[2].mac.queue packetPopped:vector(packetBytes) ETV
attr interpolationmode none
attr title "packet popped, vector(packetBytes)"
vector 99 TcpSynAttack.交换机[0].eth[2].mac.queue queueingTime:vector ETV
attr interpolationmode none
attr source queueingTime(packetPopped)
attr title "queueing times, vector"
attr unit s
vector 100 TcpSynAttack.交换机[0].eth[1].mac packetReceivedFromUpper:vector(packetBytes) ETV
attr interpolationmode none
attr source packetReceivedFromUpper
attr title "packet bytes from higher layer, vector(packetBytes)"
vector 101 TcpSynAttack.交换机[0].eth[1].mac.queue packetPushed:vector(packetBytes) ETV
attr interpolationmode none
attr title "packet pushed, vector(packetBytes)"
vector 102 TcpSynAttack.交换机[0].eth[1].mac.queue queueLength:vector ETV
attr interpolationmode sample-hold
attr source "count(packetPushed) - count(packetPopped) - count(packetRemoved) - count(packetDropped)"
attr title "queue length, vector"
vector 103 TcpSynAttack.交换机[0].eth[1].mac.queue packetPopped:vector(packetBytes) ETV
attr interpolationmode none
attr title "packet popped, vector(packetBytes)"
vector 104 TcpSynAttack.交换机[0].eth[1].mac.queue queueingTime:vector ETV
attr interpolationmode none
attr source queueingTime(packetPopped)
attr title "queueing times, vector"
attr unit s
vector 105 TcpSynAttack.交换机[1].eth[0].mac packetReceivedFromUpper:vector(packetBytes) ETV
attr interpolationmode none
attr source packetReceivedFromUpper
attr title "packet bytes from higher layer, vector(packetBytes)"
vector 106 TcpSynAttack.交换机[1].eth[0].mac.queue packetPushed:vector(packetBytes) ETV
attr interpolationmode none
attr title "packet pushed, vector(packetBytes)"
vector 107 TcpSynAttack.交换机[1].eth[0].mac.queue queueLength:vector ETV
attr interpolationmode sample-hold
attr source "count(packetPushed) - count(packetPopped) - count(packetRemoved) - count(packetDropped)"
attr title "queue length, vector"
vector 108 TcpSynAttack.交换机[1].eth[0].mac.queue packetPopped:vector(packetBytes) ETV
attr interpolationmode none
attr title "packet popped, vector(packetBytes)"
vector 109 TcpSynAttack.交换机[1].eth[0].mac.queue queueingTime:vector ETV
attr interpolationmode none
attr source queueingTime(packetPopped)
attr title "queueing times, vector"
attr unit s
vector 110 TcpSynAttack.交换机[1].eth[1].mac packetReceivedFromUpper:vector(packetBytes) ETV
attr interpolationmode none
attr source packetReceivedFromUpper
attr title "packet bytes from higher layer, vector(packetBytes)"
vector 111 TcpSynAttack.交换机[1].eth[1].mac.queue packetPushed:vector(packetBytes) ETV
attr interpolationmode none
attr title "packet pushed, vector(packetBytes)"
vector 112 TcpSynAttack.交换机[1].eth[1].mac.queue queueLength:vector ETV
attr interpolationmode sample-hold
attr source "count(packetPushed) - count(packetPopped) - count(packetRemoved) - count(packetDropped)"
attr title "queue length, vector"
vector 113 TcpSynAttack.交换机[1].eth[1].mac.queue packetPopped:vector(packetBytes) ETV
attr interpolationmode none
attr title "packet popped, vector(packetBytes)"
vector 114 TcpSynAttack.交换机[1].eth[1].mac.queue queueingTime:vector ETV
attr interpolationmode none
attr source queueingTime(packetPopped)
attr title "queueing times, vector"
attr unit s
vector 115 TcpSynAttack.交换机[1].eth[3].mac packetReceivedFromUpper:vector(packetBytes) ETV
attr interpolationmode none
attr source packetReceivedFromUpper
attr title "packet bytes from higher layer, vector(packetBytes)"
vector 116 TcpSynAttack.交换机[1].eth[3].mac.queue packetPushed:vector(packetBytes) ETV
attr interpolationmode none
attr title "packet pushed, vector(packetBytes)"
vector 117 TcpSynAttack.交换机[1].eth[3].mac.queue queueLength:vector ETV
attr interpolationmode sample-hold
attr source "count(packetPushed) - count(packetPopped) - count(packetRemoved) - count(packetDropped)"
attr title "queue length, vector"
vector 118 TcpSynAttack.交换机[1].eth[3].mac.queue packetPopped:vector(packetBytes) ETV
attr interpolationmode none
attr title "packet popped, vector(packetBytes)"
vector 119 TcpSynAttack.交换机[1].eth[3].mac.queue queueingTime:vector ETV
attr interpolationmode none
attr source queueingTime(packetPopped)
attr title "queueing times, vector"
attr unit s
vector 120 TcpSynAttack.交换机[1].eth[2].mac packetReceivedFromUpper:vector(packetBytes) ETV
attr interpolationmode none
attr source packetReceivedFromUpper
attr title "packet bytes from higher layer, vector(packetBytes)"
vector 121 TcpSynAttack.交换机[1].eth[2].mac.queue packetPushed:vector(packetBytes) ETV
attr interpolationmode none
attr title "packet pushed, vector(packetBytes)"
vector 122 TcpSynAttack.交换机[1].eth[2].mac.queue queueLength:vector ETV
attr interpolationmode sample-hold
attr source "count(packetPushed) - count(packetPopped) - count(packetRemoved) - count(packetDropped)"
attr title "queue length, vector"
vector 123 TcpSynAttack.交换机[1].eth[2].mac.queue packetPopped:vector(packetBytes) ETV
attr interpolationmode none
attr title "packet popped, vector(packetBytes)"
vector 124 TcpSynAttack.交换机[1].eth[2].mac.queue queueingTime:vector ETV
attr interpolationmode none
attr source queueingTime(packetPopped)
attr title "queueing times, vector"
attr unit s
vector 125 TcpSynAttack.交换机[2].eth[0].mac packetReceivedFromUpper:vector(packetBytes) ETV
attr interpolationmode none
attr source packetReceivedFromUpper
attr title "packet bytes from higher layer, vector(packetBytes)"
vector 126 TcpSynAttack.交换机[2].eth[0].mac.queue packetPushed:vector(packetBytes) ETV
attr interpolationmode none
attr title "packet pushed, vector(packetBytes)"
vector 127 TcpSynAttack.交换机[2].eth[0].mac.queue queueLength:vector ETV
attr interpolationmode sample-hold
attr source "count(packetPushed) - count(packetPopped) - count(packetRemoved) - count(packetDropped)"
attr title "queue length, vector"
vector 128 TcpSynAttack.交换机[2].eth[0].mac.queue packetPopped:vector(packetBytes) ETV
attr interpolationmode none
attr title "packet popped, vector(packetBytes)"
vector 129 TcpSynAttack.交换机[2].eth[0].mac.queue queueingTime:vector ETV
attr interpolationmode none
attr source queueingTime(packetPopped)
attr title "queueing times, vector"
attr unit s
vector 130 TcpSynAttack.交换机[2].eth[2].mac packetReceivedFromUpper:vector(packetBytes) ETV
attr interpolationmode none
attr source packetReceivedFromUpper
attr title "packet bytes from higher layer, vector(packetBytes)"
vector 131 TcpSynAttack.交换机[2].eth[2].mac.queue packetPushed:vector(packetBytes) ETV
attr interpolationmode none
attr title "packet pushed, vector(packetBytes)"
vector 132 TcpSynAttack.交换机[2].eth[2].mac.queue queueLength:vector ETV
attr interpolationmode sample-hold
attr source "count(packetPushed) - count(packetPopped) - count(packetRemoved) - count(packetDropped)"
attr title "queue length, vector"
vector 133 TcpSynAttack.交换机[2].eth[2].mac.queue packetPopped:vector(packetBytes) ETV
attr interpolationmode none
attr title "packet popped, vector(packetBytes)"
vector 134 TcpSynAttack.交换机[2].eth[2].mac.queue queueingTime:vector ETV
attr interpolationmode none
attr source queueingTime(packetPopped)
attr title "queueing times, vector"
attr unit s
vector 135 TcpSynAttack.交换机[2].eth[1].mac packetReceivedFromUpper:vector(packetBytes) ETV
attr interpolationmode none
attr source packetReceivedFromUpper
attr title "packet bytes from higher layer, vector(packetBytes)"
vector 136 TcpSynAttack.交换机[2].eth[1].mac.queue packetPushed:vector(packetBytes) ETV
attr interpolationmode none
attr title "packet pushed, vector(packetBytes)"
vector 137 TcpSynAttack.交换机[2].eth[1].mac.queue queueLength:vector ETV
attr interpolationmode sample-hold
attr source "count(packetPushed) - count(packetPopped) - count(packetRemoved) - count(packetDropped)"
attr title "queue length, vector"
vector 138 TcpSynAttack.交换机[2].eth[1].mac.queue packetPopped:vector(packetBytes) ETV
attr interpolationmode none
attr title "packet popped, vector(packetBytes)"
vector 139 TcpSynAttack.交换机[2].eth[1].mac.queue queueingTime:vector ETV
attr interpolationmode none
attr source queueingTime(packetPopped)
attr title "queueing times, vector"
attr unit s
vector 140 TcpSynAttack.交换机[0].eth[0].mac txPk:vector(packetBytes) ETV
attr interpolationmode none
attr source packetSentToLower
attr title "packets transmitted, vector(packetBytes)"
vector 141 TcpSynAttack.交换机[1].eth[0].mac txPk:vector(packetBytes) ETV
attr interpolationmode none
attr source packetSentToLower
attr title "packets transmitted, vector(packetBytes)"
vector 142 TcpSynAttack.交换机[1].eth[1].mac txPk:vector(packetBytes) ETV
attr interpolationmode none
attr source packetSentToLower
attr title "packets transmitted, vector(packetBytes)"
vector 143 TcpSynAttack.交换机[2].eth[0].mac txPk:vector(packetBytes) ETV
attr interpolationmode none
attr source packetSentToLower
attr title "packets transmitted, vector(packetBytes)"
vector 144 TcpSynAttack.路由器[0].eth[0].mac rxPkOk:vector(packetBytes) ETV
attr interpolationmode none
attr source rxPkOk
attr title "packets received OK, vector(packetBytes)"
vector 145 TcpSynAttack.路由器[0].eth[0].mac passedUpPk:vector(packetBytes) ETV
attr interpolationmode none
attr source packetSentToUpper
attr title "packets passed to higher layer, vector(packetBytes)"
vector 146 TcpSynAttack.路由器[1].eth[0].mac rxPkOk:vector(packetBytes) ETV
attr interpolationmode none
attr source rxPkOk
attr title "packets received OK, vector(packetBytes)"
vector 147 TcpSynAttack.路由器[1].eth[0].mac passedUpPk:vector(packetBytes) ETV
attr interpolationmode none
attr source packetSentToUpper
attr title "packets passed to higher layer, vector(packetBytes)"
vector 148 TcpSynAttack.服务器 NumReceivedIpPackets:vector ETV
attr source count(packetReceivedFromLower)
vector 149 TcpSynAttack.服务器.eth[0].mac rxPkOk:vector(packetBytes) ETV
attr interpolationmode none
attr source rxPkOk
attr title "packets received OK, vector(packetBytes)"
vector 150 TcpSynAttack.服务器.eth[0].mac passedUpPk:vector(packetBytes) ETV
attr interpolationmode none
attr source packetSentToUpper
attr title "packets passed to higher layer, vector(packetBytes)"
vector 151 TcpSynAttack.路由器[2].eth[0].mac rxPkOk:vector(packetBytes) ETV
attr interpolationmode none
attr source rxPkOk
attr title "packets received OK, vector(packetBytes)"
vector 152 TcpSynAttack.路由器[2].eth[0].mac passedUpPk:vector(packetBytes) ETV
attr interpolationmode none
attr source packetSentToUpper
attr title "packets passed to higher layer, vector(packetBytes)"
vector 153 TcpSynAttack.路由器[0].eth[0].encap decapPk:vector(packetBytes) ETV
attr interpolationmode none
attr source decapPk
attr title "packets decapsulated, vector(packetBytes)"
vector 154 TcpSynAttack.路由器[1].eth[0].encap decapPk:vector(packetBytes) ETV
attr interpolationmode none
attr source decapPk
attr title "packets decapsulated, vector(packetBytes)"
vector 155 TcpSynAttack.服务器.eth[0].encap decapPk:vector(packetBytes) ETV
attr interpolationmode none
attr source decapPk
attr title "packets decapsulated, vector(packetBytes)"
vector 156 TcpSynAttack.路由器[2].eth[0].encap decapPk:vector(packetBytes) ETV
attr interpolationmode none
attr source decapPk
attr title "packets decapsulated, vector(packetBytes)"
vector 157 TcpSynAttack.路由器[0].ipv4.arp arpReplySent:vector(packetBytes) ETV
attr source arpReplySent
attr title "ARP replies sent, vector(packetBytes)"
vector 158 TcpSynAttack.服务器.ipv4.arp arpReplySent:vector(packetBytes) ETV
attr source arpReplySent
attr title "ARP replies sent, vector(packetBytes)"
vector 159 TcpSynAttack.路由器[2].ipv4.arp arpReplySent:vector(packetBytes) ETV
attr source arpReplySent
attr title "ARP replies sent, vector(packetBytes)"
vector 160 TcpSynAttack.路由器[0].eth[0].encap encapPk:vector(packetBytes) ETV
attr interpolationmode none
attr source encapPk
attr title "packets encapsulated, vector(packetBytes)"
vector 161 TcpSynAttack.服务器.eth[0].encap encapPk:vector(packetBytes) ETV
attr interpolationmode none
attr source encapPk
attr title "packets encapsulated, vector(packetBytes)"
vector 162 TcpSynAttack.路由器[2].eth[0].encap encapPk:vector(packetBytes) ETV
attr interpolationmode none
attr source encapPk
attr title "packets encapsulated, vector(packetBytes)"
vector 163 TcpSynAttack.路由器[0].eth[0].mac packetReceivedFromUpper:vector(packetBytes) ETV
attr interpolationmode none
attr source packetReceivedFromUpper
attr title "packet bytes from higher layer, vector(packetBytes)"
vector 164 TcpSynAttack.路由器[0].eth[0].mac.queue packetPushed:vector(packetBytes) ETV
attr interpolationmode none
attr title "packet pushed, vector(packetBytes)"
vector 165 TcpSynAttack.路由器[0].eth[0].mac.queue queueLength:vector ETV
attr interpolationmode sample-hold
attr source "count(packetPushed) - count(packetPopped) - count(packetRemoved) - count(packetDropped)"
attr title "queue length, vector"
vector 166 TcpSynAttack.路由器[0].eth[0].mac.queue packetPopped:vector(packetBytes) ETV
attr interpolationmode none
attr title "packet popped, vector(packetBytes)"
vector 167 TcpSynAttack.路由器[0].eth[0].mac.queue queueingTime:vector ETV
attr interpolationmode none
attr source queueingTime(packetPopped)
attr title "queueing times, vector"
attr unit s
vector 168 TcpSynAttack.服务器.eth[0].mac packetReceivedFromUpper:vector(packetBytes) ETV
attr interpolationmode none
attr source packetReceivedFromUpper
attr title "packet bytes from higher layer, vector(packetBytes)"
vector 169 TcpSynAttack.服务器.eth[0].mac.queue packetPushed:vector(packetBytes) ETV
attr interpolationmode none
attr title "packet pushed, vector(packetBytes)"
vector 170 TcpSynAttack.服务器.eth[0].mac.queue queueLength:vector ETV
attr interpolationmode sample-hold
attr source "count(packetPushed) - count(packetPopped) - count(packetRemoved) - count(packetDropped)"
attr title "queue length, vector"
vector 171 TcpSynAttack.服务器.eth[0].mac.queue packetPopped:vector(packetBytes) ETV
attr interpolationmode none
attr title "packet popped, vector(packetBytes)"
vector 172 TcpSynAttack.服务器.eth[0].mac.queue queueingTime:vector ETV
attr interpolationmode none
attr source queueingTime(packetPopped)
attr title "queueing times, vector"
attr unit s
vector 173 TcpSynAttack.路由器[2].eth[0].mac packetReceivedFromUpper:vector(packetBytes) ETV
attr interpolationmode none
attr source packetReceivedFromUpper
attr title "packet bytes from higher layer, vector(packetBytes)"
vector 174 TcpSynAttack.路由器[2].eth[0].mac.queue packetPushed:vector(packetBytes) ETV
attr interpolationmode none
attr title "packet pushed, vector(packetBytes)"
vector 175 TcpSynAttack.路由器[2].eth[0].mac.queue queueLength:vector ETV
attr interpolationmode sample-hold
attr source "count(packetPushed) - count(packetPopped) - count(packetRemoved) - count(packetDropped)"
attr title "queue length, vector"
vector 176 TcpSynAttack.路由器[2].eth[0].mac.queue packetPopped:vector(packetBytes) ETV
attr interpolationmode none
attr title "packet popped, vector(packetBytes)"
vector 177 TcpSynAttack.路由器[2].eth[0].mac.queue queueingTime:vector ETV
attr interpolationmode none
attr source queueingTime(packetPopped)
attr title "queueing times, vector"
attr unit s
vector 178 TcpSynAttack.交换机[0].eth[1].mac txPk:vector(packetBytes) ETV
attr interpolationmode none
attr source packetSentToLower
attr title "packets transmitted, vector(packetBytes)"
vector 179 TcpSynAttack.交换机[0].eth[2].mac txPk:vector(packetBytes) ETV
attr interpolationmode none
attr source packetSentToLower
attr title "packets transmitted, vector(packetBytes)"
vector 180 TcpSynAttack.交换机[1].eth[2].mac txPk:vector(packetBytes) ETV
attr interpolationmode none
attr source packetSentToLower
attr title "packets transmitted, vector(packetBytes)"
vector 181 TcpSynAttack.交换机[1].eth[3].mac txPk:vector(packetBytes) ETV
attr interpolationmode none
attr source packetSentToLower
attr title "packets transmitted, vector(packetBytes)"
vector 182 TcpSynAttack.交换机[2].eth[1].mac txPk:vector(packetBytes) ETV
attr interpolationmode none
attr source packetSentToLower
attr title "packets transmitted, vector(packetBytes)"
vector 183 TcpSynAttack.交换机[2].eth[2].mac txPk:vector(packetBytes) ETV
attr interpolationmode none
attr source packetSentToLower
attr title "packets transmitted, vector(packetBytes)"
vector 184 TcpSynAttack.被控主机[0].eth[0].mac rxPkOk:vector(packetBytes) ETV
attr interpolationmode none
attr source rxPkOk
attr title "packets received OK, vector(packetBytes)"
vector 185 TcpSynAttack.被控主机[0].eth[0].mac passedUpPk:vector(packetBytes) ETV
attr interpolationmode none
attr source packetSentToUpper
attr title "packets passed to higher layer, vector(packetBytes)"
vector 186 TcpSynAttack.被控主机[1].eth[0].mac rxPkOk:vector(packetBytes) ETV
attr interpolationmode none
attr source rxPkOk
attr title "packets received OK, vector(packetBytes)"
vector 187 TcpSynAttack.被控主机[1].eth[0].mac passedUpPk:vector(packetBytes) ETV
attr interpolationmode none
attr source packetSentToUpper
attr title "packets passed to higher layer, vector(packetBytes)"
vector 188 TcpSynAttack.被控主机[2].eth[0].mac rxPkOk:vector(packetBytes) ETV
attr interpolationmode none
attr source rxPkOk
attr title "packets received OK, vector(packetBytes)"
vector 189 TcpSynAttack.被控主机[2].eth[0].mac passedUpPk:vector(packetBytes) ETV
attr interpolationmode none
attr source packetSentToUpper
attr title "packets passed to higher layer, vector(packetBytes)"
vector 190 TcpSynAttack.被控主机[3].eth[0].mac rxPkOk:vector(packetBytes) ETV
attr interpolationmode none
attr source rxPkOk
attr title "packets received OK, vector(packetBytes)"
vector 191 TcpSynAttack.被控主机[3].eth[0].mac passedUpPk:vector(packetBytes) ETV
attr interpolationmode none
attr source packetSentToUpper
attr title "packets passed to higher layer, vector(packetBytes)"
vector 192 TcpSynAttack.被控主机[4].eth[0].mac rxPkOk:vector(packetBytes) ETV
attr interpolationmode none
attr source rxPkOk
attr title "packets received OK, vector(packetBytes)"
vector 193 TcpSynAttack.被控主机[4].eth[0].mac passedUpPk:vector(packetBytes) ETV
attr interpolationmode none
attr source packetSentToUpper
attr title "packets passed to higher layer, vector(packetBytes)"
vector 194 TcpSynAttack.被控主机[5].eth[0].mac rxPkOk:vector(packetBytes) ETV
attr interpolationmode none
attr source rxPkOk
attr title "packets received OK, vector(packetBytes)"
vector 195 TcpSynAttack.被控主机[5].eth[0].mac passedUpPk:vector(packetBytes) ETV
attr interpolationmode none
attr source packetSentToUpper
attr title "packets passed to higher layer, vector(packetBytes)"
vector 196 TcpSynAttack.被控主机[0].eth[0].encap decapPk:vector(packetBytes) ETV
attr interpolationmode none
attr source decapPk
attr title "packets decapsulated, vector(packetBytes)"
vector 197 TcpSynAttack.被控主机[1].eth[0].encap decapPk:vector(packetBytes) ETV
attr interpolationmode none
attr source decapPk
attr title "packets decapsulated, vector(packetBytes)"
vector 198 TcpSynAttack.被控主机[2].eth[0].encap decapPk:vector(packetBytes) ETV
attr interpolationmode none
attr source decapPk
attr title "packets decapsulated, vector(packetBytes)"
vector 199 TcpSynAttack.被控主机[3].eth[0].encap decapPk:vector(packetBytes) ETV
attr interpolationmode none
attr source decapPk
attr title "packets decapsulated, vector(packetBytes)"
vector 200 TcpSynAttack.被控主机[4].eth[0].encap decapPk:vector(packetBytes) ETV
attr interpolationmode none
attr source decapPk
attr title "packets decapsulated, vector(packetBytes)"
vector 201 TcpSynAttack.被控主机[5].eth[0].encap decapPk:vector(packetBytes) ETV
attr interpolationmode none
attr source decapPk
attr title "packets decapsulated, vector(packetBytes)"
vector 202 TcpSynAttack.路由器[0].eth[0].mac txPk:vector(packetBytes) ETV
attr interpolationmode none
attr source packetSentToLower
attr title "packets transmitted, vector(packetBytes)"
vector 203 TcpSynAttack.服务器.eth[0].mac txPk:vector(packetBytes) ETV
attr interpolationmode none
attr source packetSentToLower
attr title "packets transmitted, vector(packetBytes)"
vector 204 TcpSynAttack.路由器[2].eth[0].mac txPk:vector(packetBytes) ETV
attr interpolationmode none
attr source packetSentToLower
attr title "packets transmitted, vector(packetBytes)"
vector 205 TcpSynAttack.交换机[0].eth[0].mac rxPkOk:vector(packetBytes) ETV
attr interpolationmode none
attr source rxPkOk
attr title "packets received OK, vector(packetBytes)"
vector 206 TcpSynAttack.交换机[0].eth[0].mac passedUpPk:vector(packetBytes) ETV
attr interpolationmode none
attr source packetSentToUpper
attr title "packets passed to higher layer, vector(packetBytes)"
vector 207 TcpSynAttack.交换机[1].eth[1].mac rxPkOk:vector(packetBytes) ETV
attr interpolationmode none
attr source rxPkOk
attr title "packets received OK, vector(packetBytes)"
vector 208 TcpSynAttack.交换机[1].eth[1].mac passedUpPk:vector(packetBytes) ETV
attr interpolationmode none
attr source packetSentToUpper
attr title "packets passed to higher layer, vector(packetBytes)"
vector 209 TcpSynAttack.交换机[2].eth[0].mac rxPkOk:vector(packetBytes) ETV
attr interpolationmode none
attr source rxPkOk
attr title "packets received OK, vector(packetBytes)"
vector 210 TcpSynAttack.交换机[2].eth[0].mac passedUpPk:vector(packetBytes) ETV
attr interpolationmode none
attr source packetSentToUpper
attr title "packets passed to higher layer, vector(packetBytes)"
vector 211 TcpSynAttack.路由器[0].ppp[0].ppp rcvdPkFromHl:vector(packetBytes) ETV
attr interpolationmode none
attr source packetReceivedFromUpper
attr title "packets received from higher layer, vector(packetBytes)"
vector 212 TcpSynAttack.路由器[0].ppp[0].ppp.queue packetPushed:vector(packetBytes) ETV
attr interpolationmode none
attr title "packet pushed, vector(packetBytes)"
vector 213 TcpSynAttack.路由器[0].ppp[0].ppp.queue queueLength:vector ETV
attr interpolationmode sample-hold
attr source "count(packetPushed) - count(packetPopped) - count(packetRemoved) - count(packetDropped)"
attr title "queue length, vector"
vector 214 TcpSynAttack.路由器[0].ppp[0].ppp.queue packetPopped:vector(packetBytes) ETV
attr interpolationmode none
attr title "packet popped, vector(packetBytes)"
vector 215 TcpSynAttack.路由器[0].ppp[0].ppp.queue queueingTime:vector ETV
attr interpolationmode none
attr source queueingTime(packetPopped)
attr title "queueing times, vector"
attr unit s
vector 216 TcpSynAttack.路由器[0].ppp[0].ppp txPk:vector(packetBytes) ETV
attr interpolationmode none
attr source packetSentToLower
attr title "packets transmitted, vector(packetBytes)"
vector 217 TcpSynAttack.服务器.tcp.conn-6 rcvSeq:vector ETV
attr interpolationmode sample-hold
vector 218 TcpSynAttack.服务器.tcp.conn-6 rcvAck:vector ETV
attr interpolationmode sample-hold
vector 219 TcpSynAttack.服务器.tcp.conn-19 rcvAdv:vector ETV
attr interpolationmode sample-hold
vector 220 TcpSynAttack.服务器.tcp.conn-19 sndWnd:vector ETV
attr interpolationmode sample-hold
vector 221 TcpSynAttack.服务器.tcp.conn-19 tcpRcvQueueBytes:vector ETV
attr interpolationmode sample-hold
vector 222 TcpSynAttack.服务器.tcp.conn-19 rcvWnd:vector ETV
attr interpolationmode sample-hold
vector 223 TcpSynAttack.服务器.tcp.conn-19 sndAck:vector ETV
attr interpolationmode sample-hold
vector 224 TcpSynAttack.路由器[2].ppp[0].ppp rcvdPkFromHl:vector(packetBytes) ETV
attr interpolationmode none
attr source packetReceivedFromUpper
attr title "packets received from higher layer, vector(packetBytes)"
vector 225 TcpSynAttack.路由器[2].ppp[0].ppp.queue packetPushed:vector(packetBytes) ETV
attr interpolationmode none
attr title "packet pushed, vector(packetBytes)"
vector 226 TcpSynAttack.路由器[2].ppp[0].ppp.queue queueLength:vector ETV
attr interpolationmode sample-hold
attr source "count(packetPushed) - count(packetPopped) - count(packetRemoved) - count(packetDropped)"
attr title "queue length, vector"
vector 227 TcpSynAttack.路由器[2].ppp[0].ppp.queue packetPopped:vector(packetBytes) ETV
attr interpolationmode none
attr title "packet popped, vector(packetBytes)"
vector 228 TcpSynAttack.路由器[2].ppp[0].ppp.queue queueingTime:vector ETV
attr interpolationmode none
attr source queueingTime(packetPopped)
attr title "queueing times, vector"
attr unit s
vector 229 TcpSynAttack.路由器[2].ppp[0].ppp txPk:vector(packetBytes) ETV
attr interpolationmode none
attr source packetSentToLower
attr title "packets transmitted, vector(packetBytes)"
vector 230 TcpSynAttack.服务器.tcp.conn-20 rcvAdv:vector ETV
attr interpolationmode sample-hold
vector 231 TcpSynAttack.服务器.tcp.conn-20 sndWnd:vector ETV
attr interpolationmode sample-hold
vector 232 TcpSynAttack.服务器.tcp.conn-20 tcpRcvQueueBytes:vector ETV
attr interpolationmode sample-hold
vector 233 TcpSynAttack.服务器.tcp.conn-20 rcvWnd:vector ETV
attr interpolationmode sample-hold
vector 234 TcpSynAttack.服务器.tcp.conn-20 sndAck:vector ETV
attr interpolationmode sample-hold
vector 235 TcpSynAttack.路由器[1].ppp[0].ppp rxPkOk:vector(packetBytes) ETV
attr interpolationmode none
attr source rxPkOk
attr title "packets received OK, vector(packetBytes)"
vector 236 TcpSynAttack.路由器[1].ppp[0].ppp passedUpPk:vector(packetBytes) ETV
attr interpolationmode none
attr source packetSentToUpper
attr title "packets passed to higher layer, vector(packetBytes)"
vector 237 TcpSynAttack.路由器[1].ppp[1].ppp rxPkOk:vector(packetBytes) ETV
attr interpolationmode none
attr source rxPkOk
attr title "packets received OK, vector(packetBytes)"
vector 238 TcpSynAttack.路由器[1].ppp[1].ppp passedUpPk:vector(packetBytes) ETV
attr interpolationmode none
attr source packetSentToUpper
attr title "packets passed to higher layer, vector(packetBytes)"
vector 239 TcpSynAttack.路由器[1].ipv4.arp arpRequestSent:vector(packetBytes) ETV
attr source arpRequestSent
attr title "ARP request sent, vector(packetBytes)"
vector 240 TcpSynAttack.路由器[1].eth[0].encap encapPk:vector(packetBytes) ETV
attr interpolationmode none
attr source encapPk
attr title "packets encapsulated, vector(packetBytes)"
vector 241 TcpSynAttack.路由器[1].eth[0].mac packetReceivedFromUpper:vector(packetBytes) ETV
attr interpolationmode none
attr source packetReceivedFromUpper
attr title "packet bytes from higher layer, vector(packetBytes)"
vector 242 TcpSynAttack.路由器[1].eth[0].mac.queue packetPushed:vector(packetBytes) ETV
attr interpolationmode none
attr title "packet pushed, vector(packetBytes)"
vector 243 TcpSynAttack.路由器[1].eth[0].mac.queue queueLength:vector ETV
attr interpolationmode sample-hold
attr source "count(packetPushed) - count(packetPopped) - count(packetRemoved) - count(packetDropped)"
attr title "queue length, vector"
vector 244 TcpSynAttack.路由器[1].eth[0].mac.queue packetPopped:vector(packetBytes) ETV
attr interpolationmode none
attr title "packet popped, vector(packetBytes)"
vector 245 TcpSynAttack.路由器[1].eth[0].mac.queue queueingTime:vector ETV
attr interpolationmode none
attr source queueingTime(packetPopped)
attr title "queueing times, vector"
attr unit s
vector 246 TcpSynAttack.被控主机[2].tcp.conn-15 rcvSeq:vector ETV
attr interpolationmode sample-hold
vector 247 TcpSynAttack.被控主机[2].tcp.conn-15 rcvAck:vector ETV
attr interpolationmode sample-hold
vector 248 TcpSynAttack.被控主机[2].tcp.conn-15 sndWnd:vector ETV
attr interpolationmode sample-hold
vector 249 TcpSynAttack.路由器[1].eth[0].mac txPk:vector(packetBytes) ETV
attr interpolationmode none
attr source packetSentToLower
attr title "packets transmitted, vector(packetBytes)"
vector 250 TcpSynAttack.交换机[1].eth[0].mac rxPkOk:vector(packetBytes) ETV
attr interpolationmode none
attr source rxPkOk
attr title "packets received OK, vector(packetBytes)"
vector 251 TcpSynAttack.交换机[1].eth[0].mac passedUpPk:vector(packetBytes) ETV
attr interpolationmode none
attr source packetSentToUpper
attr title "packets passed to higher layer, vector(packetBytes)"
vector 252 TcpSynAttack.被控主机[3].tcp.conn-16 rcvSeq:vector ETV
attr interpolationmode sample-hold
vector 253 TcpSynAttack.被控主机[3].tcp.conn-16 rcvAck:vector ETV
attr interpolationmode sample-hold
vector 254 TcpSynAttack.被控主机[3].tcp.conn-16 sndWnd:vector ETV
attr interpolationmode sample-hold
vector 255 TcpSynAttack.服务器.tcp.conn-21 rcvAdv:vector ETV
attr interpolationmode sample-hold
vector 256 TcpSynAttack.服务器.tcp.conn-21 sndWnd:vector ETV
attr interpolationmode sample-hold
vector 257 TcpSynAttack.服务器.tcp.conn-21 tcpRcvQueueBytes:vector ETV
attr interpolationmode sample-hold
vector 258 TcpSynAttack.服务器.tcp.conn-21 rcvWnd:vector ETV
attr interpolationmode sample-hold
vector 259 TcpSynAttack.服务器.tcp.conn-21 sndAck:vector ETV
attr interpolationmode sample-hold
vector 260 TcpSynAttack.服务器.tcp.conn-22 rcvAdv:vector ETV
attr interpolationmode sample-hold
vector 261 TcpSynAttack.服务器.tcp.conn-22 sndWnd:vector ETV
attr interpolationmode sample-hold
vector 262 TcpSynAttack.服务器.tcp.conn-22 tcpRcvQueueBytes:vector ETV
attr interpolationmode sample-hold
vector 263 TcpSynAttack.服务器.tcp.conn-22 rcvWnd:vector ETV
attr interpolationmode sample-hold
vector 264 TcpSynAttack.服务器.tcp.conn-22 sndAck:vector ETV
attr interpolationmode sample-hold
vector 265 TcpSynAttack.路由器[1].ppp[0].ppp rcvdPkFromHl:vector(packetBytes) ETV
attr interpolationmode none
attr source packetReceivedFromUpper
attr title "packets received from higher layer, vector(packetBytes)"
vector 266 TcpSynAttack.路由器[1].ppp[0].ppp.queue packetPushed:vector(packetBytes) ETV
attr interpolationmode none
attr title "packet pushed, vector(packetBytes)"
vector 267 TcpSynAttack.路由器[1].ppp[0].ppp.queue queueLength:vector ETV
attr interpolationmode sample-hold
attr source "count(packetPushed) - count(packetPopped) - count(packetRemoved) - count(packetDropped)"
attr title "queue length, vector"
vector 268 TcpSynAttack.路由器[1].ppp[0].ppp.queue packetPopped:vector(packetBytes) ETV
attr interpolationmode none
attr title "packet popped, vector(packetBytes)"
vector 269 TcpSynAttack.路由器[1].ppp[0].ppp.queue queueingTime:vector ETV
attr interpolationmode none
attr source queueingTime(packetPopped)
attr title "queueing times, vector"
attr unit s
vector 270 TcpSynAttack.路由器[1].ppp[0].ppp txPk:vector(packetBytes) ETV
attr interpolationmode none
attr source packetSentToLower
attr title "packets transmitted, vector(packetBytes)"
vector 271 TcpSynAttack.服务器.tcp.conn-23 rcvAdv:vector ETV
attr interpolationmode sample-hold
vector 272 TcpSynAttack.服务器.tcp.conn-23 sndWnd:vector ETV
attr interpolationmode sample-hold
vector 273 TcpSynAttack.服务器.tcp.conn-23 tcpRcvQueueBytes:vector ETV
attr interpolationmode sample-hold
vector 274 TcpSynAttack.服务器.tcp.conn-23 rcvWnd:vector ETV
attr interpolationmode sample-hold
vector 275 TcpSynAttack.服务器.tcp.conn-23 sndAck:vector ETV
attr interpolationmode sample-hold
vector 276 TcpSynAttack.路由器[1].ppp[1].ppp rcvdPkFromHl:vector(packetBytes) ETV
attr interpolationmode none
attr source packetReceivedFromUpper
attr title "packets received from higher layer, vector(packetBytes)"
vector 277 TcpSynAttack.路由器[1].ppp[1].ppp.queue packetPushed:vector(packetBytes) ETV
attr interpolationmode none
attr title "packet pushed, vector(packetBytes)"
vector 278 TcpSynAttack.路由器[1].ppp[1].ppp.queue queueLength:vector ETV
attr interpolationmode sample-hold
attr source "count(packetPushed) - count(packetPopped) - count(packetRemoved) - count(packetDropped)"
attr title "queue length, vector"
vector 279 TcpSynAttack.路由器[1].ppp[1].ppp.queue packetPopped:vector(packetBytes) ETV
attr interpolationmode none
attr title "packet popped, vector(packetBytes)"
vector 280 TcpSynAttack.路由器[1].ppp[1].ppp.queue queueingTime:vector ETV
attr interpolationmode none
attr source queueingTime(packetPopped)
attr title "queueing times, vector"
attr unit s
vector 281 TcpSynAttack.路由器[1].ppp[1].ppp txPk:vector(packetBytes) ETV
attr interpolationmode none
attr source packetSentToLower
attr title "packets transmitted, vector(packetBytes)"
vector 282 TcpSynAttack.路由器[0].ppp[0].ppp rxPkOk:vector(packetBytes) ETV
attr interpolationmode none
attr source rxPkOk
attr title "packets received OK, vector(packetBytes)"
vector 283 TcpSynAttack.路由器[0].ppp[0].ppp passedUpPk:vector(packetBytes) ETV
attr interpolationmode none
attr source packetSentToUpper
attr title "packets passed to higher layer, vector(packetBytes)"
vector 284 TcpSynAttack.服务器.tcp.conn-24 rcvAdv:vector ETV
attr interpolationmode sample-hold
vector 285 TcpSynAttack.服务器.tcp.conn-24 sndWnd:vector ETV
attr interpolationmode sample-hold
vector 286 TcpSynAttack.服务器.tcp.conn-24 tcpRcvQueueBytes:vector ETV
attr interpolationmode sample-hold
vector 287 TcpSynAttack.服务器.tcp.conn-24 rcvWnd:vector ETV
attr interpolationmode sample-hold
vector 288 TcpSynAttack.服务器.tcp.conn-24 sndAck:vector ETV
attr interpolationmode sample-hold
vector 289 TcpSynAttack.路由器[2].ppp[0].ppp rxPkOk:vector(packetBytes) ETV
attr interpolationmode none
attr source rxPkOk
attr title "packets received OK, vector(packetBytes)"
vector 290 TcpSynAttack.路由器[2].ppp[0].ppp passedUpPk:vector(packetBytes) ETV
attr interpolationmode none
attr source packetSentToUpper
attr title "packets passed to higher layer, vector(packetBytes)"
vector 291 TcpSynAttack.被控主机[0].tcp.conn-13 rcvSeq:vector ETV
attr interpolationmode sample-hold
vector 292 TcpSynAttack.被控主机[0].tcp.conn-13 rcvAck:vector ETV
attr interpolationmode sample-hold
vector 293 TcpSynAttack.被控主机[0].tcp.conn-13 sndWnd:vector ETV
attr interpolationmode sample-hold
vector 294 TcpSynAttack.被控主机[4].tcp.conn-17 rcvSeq:vector ETV
attr interpolationmode sample-hold
vector 295 TcpSynAttack.被控主机[4].tcp.conn-17 rcvAck:vector ETV
attr interpolationmode sample-hold
vector 296 TcpSynAttack.被控主机[4].tcp.conn-17 sndWnd:vector ETV
attr interpolationmode sample-hold
vector 297 TcpSynAttack.被控主机[1].tcp.conn-14 rcvSeq:vector ETV
attr interpolationmode sample-hold
vector 298 TcpSynAttack.被控主机[1].tcp.conn-14 rcvAck:vector ETV
attr interpolationmode sample-hold
vector 299 TcpSynAttack.被控主机[1].tcp.conn-14 sndWnd:vector ETV
attr interpolationmode sample-hold
vector 300 TcpSynAttack.被控主机[5].tcp.conn-18 rcvSeq:vector ETV
attr interpolationmode sample-hold
vector 301 TcpSynAttack.被控主机[5].tcp.conn-18 rcvAck:vector ETV
attr interpolationmode sample-hold
vector 302 TcpSynAttack.被控主机[5].tcp.conn-18 sndWnd:vector ETV
attr interpolationmode sample-hold
vector 303 TcpSynAttack.服务器.tcp.conn-19 rcvSeq:vector ETV
attr interpolationmode sample-hold
vector 304 TcpSynAttack.服务器.tcp.conn-19 rcvAck:vector ETV
attr interpolationmode sample-hold
vector 305 TcpSynAttack.服务器.tcp.conn-19 rcvNASeg:vector ETV
attr interpolationmode sample-hold
vector 306 TcpSynAttack.服务器.tcp.conn-20 rcvSeq:vector ETV
attr interpolationmode sample-hold
vector 307 TcpSynAttack.服务器.tcp.conn-20 rcvAck:vector ETV
attr interpolationmode sample-hold
vector 308 TcpSynAttack.服务器.tcp.conn-20 rcvNASeg:vector ETV
attr interpolationmode sample-hold
vector 309 TcpSynAttack.服务器.tcp.conn-21 rcvSeq:vector ETV
attr interpolationmode sample-hold
vector 310 TcpSynAttack.服务器.tcp.conn-21 rcvAck:vector ETV
attr interpolationmode sample-hold
vector 311 TcpSynAttack.服务器.tcp.conn-21 rcvNASeg:vector ETV
attr interpolationmode sample-hold
vector 312 TcpSynAttack.服务器.tcp.conn-22 rcvSeq:vector ETV
attr interpolationmode sample-hold
vector 313 TcpSynAttack.服务器.tcp.conn-22 rcvAck:vector ETV
attr interpolationmode sample-hold
vector 314 TcpSynAttack.服务器.tcp.conn-22 rcvNASeg:vector ETV
attr interpolationmode sample-hold
vector 315 TcpSynAttack.服务器.tcp.conn-23 rcvSeq:vector ETV
attr interpolationmode sample-hold
vector 316 TcpSynAttack.服务器.tcp.conn-23 rcvAck:vector ETV
attr interpolationmode sample-hold
vector 317 TcpSynAttack.服务器.tcp.conn-23 rcvNASeg:vector ETV
attr interpolationmode sample-hold
vector 318 TcpSynAttack.服务器.tcp.conn-24 rcvSeq:vector ETV
attr interpolationmode sample-hold
vector 319 TcpSynAttack.服务器.tcp.conn-24 rcvAck:vector ETV
attr interpolationmode sample-hold
vector 320 TcpSynAttack.服务器.tcp.conn-24 rcvNASeg:vector ETV
attr interpolationmode sample-hold
6	54677 54 8 2130 1 46 5 0 0 0 0
292	54731 234 541 2585 1.0108498 46.0108498 9 250001 250001 2250009 562504500009
291	54965 234 541 2585 1.0108498 46.0108498 9 251932 251933 2267392 571229609076
9	55199 54 8 2130 1 46 5 0 0 0 0
7	55253 199 8 2585 1 46.0108498 10 7504 259437 2342437 605824322737
8	55452 69 8 2130 1 46 5 7504 7504 37520 281550080
293	55521 122 541 2585 1.0108498 46.0108498 5 7504 7504 37520 281550080
10	55643 59 9 2131 1 46 5 0 0 0 0
298	55702 234 583 2627 1.0121938 46.0121938 9 250001 250001 2250009 562504500009
297	55936 234 583 2627 1.0121938 46.0121938 9 252268 252269 2270416 572754312564
13	56170 59 9 2131 1 46 5 0 0 0 0
11	56229 209 9 2627 1 46.0121938 10 7504 259773 2345461 607394413777
12	56438 74 9 2131 1 46 5 7504 7504 37520 281550080
299	56512 122 583 2627 1.0121938 46.0121938 5 7504 7504 37520 281550080
14	56634 60 10 2132 1 46 5 0 0 0 0
247	56694 237 349 2368 1.0046088 46.0049447 9 250001 250001 2250009 562504500009
246	56931 237 349 2368 1.0046088 46.0049447 9 250864 250865 2257780 566396725380
17	57168 60 10 2132 1 46 5 0 0 0 0
15	57228 209 10 2368 1 46.0049447 10 7504 258369 2332825 600847171465
16	57437 75 10 2132 1 46 5 7504 7504 37520 281550080
248	57512 121 349 2368 1.0046088 46.0049447 5 7504 7504 37520 281550080
18	57633 60 11 2133 1 46 5 0 0 0 0
253	57693 237 375 2420 1.0052808 46.0062887 9 250001 250001 2250009 562504500009
252	57930 237 375 2420 1.0052808 46.0062887 9 251032 251033 2259292 567155593476
21	58167 60 11 2133 1 46 5 0 0 0 0
19	58227 209 11 2420 1 46.0062887 10 7504 258537 2334337 601628733337
20	58436 75 11 2133 1 46 5 7504 7504 37520 281550080
254	58511 121 375 2420 1.0052808 46.0062887 5 7504 7504 37520 281550080
22	58632 60 12 2134 1 46 5 0 0 0 0
295	58692 234 565 2609 1.0115218 46.0115218 9 250001 250001 2250009 562504500009
294	58926 234 565 2609 1.0115218 46.0115218 9 252100 252101 2268904 571991706804
25	59160 60 12 2134 1 46 5 0 0 0 0
23	59220 210 12 2609 1 46.0115218 10 7504 259605 2343949 606609114241
24	59430 75 12 2134 1 46 5 7504 7504 37520 281550080
296	59505 122 565 2609 1.0115218 46.0115218 5 7504 7504 37520 281550080
26	59627 60 13 2135 1 46 5 0 0 0 0
301	59687 234 595 2639 1.0128658 46.0128658 9 250001 250001 2250009 562504500009
300	59921 234 595 2639 1.0128658 46.0128658 9 252436 252437 2271928 573517426356
29	60155 60 13 2135 1 46 5 0 0 0 0
27	60215 210 13 2639 1 46.0128658 10 7504 259941 2346973 608180221345
28	60425 75 13 2135 1 46 5 7504 7504 37520 281550080
302	60500 122 595 2639 1.0128658 46.0128658 5 7504 7504 37520 281550080
vector 321 TcpSynAttack.被控主机[0].tcp.conn-25 tcpRcvQueueBytes:vector ETV
attr interpolationmode sample-hold
vector 322 TcpSynAttack.被控主机[0].tcp.conn-25 rcvAdv:vector ETV
attr interpolationmode sample-hold
vector 323 TcpSynAttack.被控主机[0].tcp.conn-25 rcvWnd:vector ETV
attr interpolationmode sample-hold
vector 324 TcpSynAttack.被控主机[0].tcp.conn-25 sndAck:vector ETV
attr interpolationmode sample-hold
vector 325 TcpSynAttack.被控主机[0].tcp.conn-26 tcpRcvQueueBytes:vector ETV
attr interpolationmode sample-hold
vector 326 TcpSynAttack.被控主机[0].tcp.conn-26 rcvAdv:vector ETV
attr interpolationmode sample-hold
vector 327 TcpSynAttack.被控主机[0].tcp.conn-26 rcvWnd:vector ETV
attr interpolationmode sample-hold
vector 328 TcpSynAttack.被控主机[0].tcp.conn-26 sndAck:vector ETV
attr interpolationmode sample-hold
vector 329 TcpSynAttack.被控主机[1].tcp.conn-27 tcpRcvQueueBytes:vector ETV
attr interpolationmode sample-hold
vector 330 TcpSynAttack.被控主机[1].tcp.conn-27 rcvAdv:vector ETV
attr interpolationmode sample-hold
vector 331 TcpSynAttack.被控主机[1].tcp.conn-27 rcvWnd:vector ETV
attr interpolationmode sample-hold
vector 332 TcpSynAttack.被控主机[1].tcp.conn-27 sndAck:vector ETV
attr interpolationmode sample-hold
vector 333 TcpSynAttack.被控主机[1].tcp.conn-28 tcpRcvQueueBytes:vector ETV
attr interpolationmode sample-hold
vector 334 TcpSynAttack.被控主机[1].tcp.conn-28 rcvAdv:vector ETV
attr interpolationmode sample-hold
vector 335 TcpSynAttack.被控主机[1].tcp.conn-28 rcvWnd:vector ETV
attr interpolationmode sample-hold
vector 336 TcpSynAttack.被控主机[1].tcp.conn-28 sndAck:vector ETV
attr interpolationmode sample-hold
vector 337 TcpSynAttack.被控主机[2].tcp.conn-29 tcpRcvQueueBytes:vector ETV
attr interpolationmode sample-hold
vector 338 TcpSynAttack.被控主机[2].tcp.conn-29 rcvAdv:vector ETV
attr interpolationmode sample-hold
vector 339 TcpSynAttack.被控主机[2].tcp.conn-29 rcvWnd:vector ETV
attr interpolationmode sample-hold
vector 340 TcpSynAttack.被控主机[2].tcp.conn-29 sndAck:vector ETV
attr interpolationmode sample-hold
vector 341 TcpSynAttack.被控主机[2].tcp.conn-30 tcpRcvQueueBytes:vector ETV
attr interpolationmode sample-hold
vector 342 TcpSynAttack.被控主机[2].tcp.conn-30 rcvAdv:vector ETV
attr interpolationmode sample-hold
vector 343 TcpSynAttack.被控主机[2].tcp.conn-30 rcvWnd:vector ETV
attr interpolationmode sample-hold
vector 344 TcpSynAttack.被控主机[2].tcp.conn-30 sndAck:vector ETV
attr interpolationmode sample-hold
vector 345 TcpSynAttack.被控主机[3].tcp.conn-31 tcpRcvQueueBytes:vector ETV
attr interpolationmode sample-hold
vector 346 TcpSynAttack.被控主机[3].tcp.conn-31 rcvAdv:vector ETV
attr interpolationmode sample-hold
vector 347 TcpSynAttack.被控主机[3].tcp.conn-31 rcvWnd:vector ETV
attr interpolationmode sample-hold
vector 348 TcpSynAttack.被控主机[3].tcp.conn-31 sndAck:vector ETV
attr interpolationmode sample-hold
vector 349 TcpSynAttack.被控主机[3].tcp.conn-32 tcpRcvQueueBytes:vector ETV
attr interpolationmode sample-hold
vector 350 TcpSynAttack.被控主机[3].tcp.conn-32 rcvAdv:vector ETV
attr interpolationmode sample-hold
vector 351 TcpSynAttack.被控主机[3].tcp.conn-32 rcvWnd:vector ETV
attr interpolationmode sample-hold
vector 352 TcpSynAttack.被控主机[3].tcp.conn-32 sndAck:vector ETV
attr interpolationmode sample-hold
vector 353 TcpSynAttack.被控主机[4].tcp.conn-33 tcpRcvQueueBytes:vector ETV
attr interpolationmode sample-hold
vector 354 TcpSynAttack.被控主机[4].tcp.conn-33 rcvAdv:vector ETV
attr interpolationmode sample-hold
vector 355 TcpSynAttack.被控主机[4].tcp.conn-33 rcvWnd:vector ETV
attr interpolationmode sample-hold
vector 356 TcpSynAttack.被控主机[4].tcp.conn-33 sndAck:vector ETV
attr interpolationmode sample-hold
vector 357 TcpSynAttack.被控主机[4].tcp.conn-34 tcpRcvQueueBytes:vector ETV
attr interpolationmode sample-hold
vector 358 TcpSynAttack.被控主机[4].tcp.conn-34 rcvAdv:vector ETV
attr interpolationmode sample-hold
vector 359 TcpSynAttack.被控主机[4].tcp.conn-34 rcvWnd:vector ETV
attr interpolationmode sample-hold
vector 360 TcpSynAttack.被控主机[4].tcp.conn-34 sndAck:vector ETV
attr interpolationmode sample-hold
vector 361 TcpSynAttack.被控主机[5].tcp.conn-35 tcpRcvQueueBytes:vector ETV
attr interpolationmode sample-hold
vector 362 TcpSynAttack.被控主机[5].tcp.conn-35 rcvAdv:vector ETV
attr interpolationmode sample-hold
vector 363 TcpSynAttack.被控主机[5].tcp.conn-35 rcvWnd:vector ETV
attr interpolationmode sample-hold
vector 364 TcpSynAttack.被控主机[5].tcp.conn-35 sndAck:vector ETV
attr interpolationmode sample-hold
vector 365 TcpSynAttack.被控主机[5].tcp.conn-36 tcpRcvQueueBytes:vector ETV
attr interpolationmode sample-hold
vector 366 TcpSynAttack.被控主机[5].tcp.conn-36 rcvAdv:vector ETV
attr interpolationmode sample-hold
vector 367 TcpSynAttack.被控主机[5].tcp.conn-36 rcvWnd:vector ETV
attr interpolationmode sample-hold
vector 368 TcpSynAttack.被控主机[5].tcp.conn-36 sndAck:vector ETV
attr interpolationmode sample-hold
vector 369 TcpSynAttack.服务器.tcp.conn-37 rcvAdv:vector ETV
attr interpolationmode sample-hold
vector 370 TcpSynAttack.服务器.tcp.conn-37 sndWnd:vector ETV
attr interpolationmode sample-hold
vector 371 TcpSynAttack.服务器.tcp.conn-37 tcpRcvQueueBytes:vector ETV
attr interpolationmode sample-hold
vector 372 TcpSynAttack.服务器.tcp.conn-37 rcvWnd:vector ETV
attr interpolationmode sample-hold
vector 373 TcpSynAttack.服务器.tcp.conn-37 sndAck:vector ETV
attr interpolationmode sample-hold
vector 374 TcpSynAttack.服务器.tcp.conn-38 rcvAdv:vector ETV
attr interpolationmode sample-hold
vector 375 TcpSynAttack.服务器.tcp.conn-38 sndWnd:vector ETV
attr interpolationmode sample-hold
vector 376 TcpSynAttack.服务器.tcp.conn-38 tcpRcvQueueBytes:vector ETV
attr interpolationmode sample-hold
vector 377 TcpSynAttack.服务器.tcp.conn-38 rcvWnd:vector ETV
attr interpolationmode sample-hold
vector 378 TcpSynAttack.服务器.tcp.conn-38 sndAck:vector ETV
attr interpolationmode sample-hold
vector 379 TcpSynAttack.被控主机[2].tcp.conn-29 rcvSeq:vector ETV
attr interpolationmode sample-hold
vector 380 TcpSynAttack.被控主机[2].tcp.conn-29 rcvAck:vector ETV
attr interpolationmode sample-hold
vector 381 TcpSynAttack.被控主机[2].tcp.conn-29 sndWnd:vector ETV
attr interpolationmode sample-hold
vector 382 TcpSynAttack.服务器.tcp.conn-39 rcvAdv:vector ETV
attr interpolationmode sample-hold
vector 383 TcpSynAttack.服务器.tcp.conn-39 sndWnd:vector ETV
attr interpolationmode sample-hold
vector 384 TcpSynAttack.服务器.tcp.conn-39 tcpRcvQueueBytes:vector ETV
attr interpolationmode sample-hold
vector 385 TcpSynAttack.服务器.tcp.conn-39 rcvWnd:vector ETV
attr interpolationmode sample-hold
vector 386 TcpSynAttack.服务器.tcp.conn-39 sndAck:vector ETV
attr interpolationmode sample-hold
vector 387 TcpSynAttack.被控主机[3].tcp.conn-31 rcvSeq:vector ETV
attr interpolationmode sample-hold
vector 388 TcpSynAttack.被控主机[3].tcp.conn-31 rcvAck:vector ETV
attr interpolationmode sample-hold
vector 389 TcpSynAttack.被控主机[3].tcp.conn-31 sndWnd:vector ETV
attr interpolationmode sample-hold
vector 390 TcpSynAttack.服务器.tcp.conn-40 rcvAdv:vector ETV
attr interpolationmode sample-hold
vector 391 TcpSynAttack.服务器.tcp.conn-40 sndWnd:vector ETV
attr interpolationmode sample-hold
vector 392 TcpSynAttack.服务器.tcp.conn-40 tcpRcvQueueBytes:vector ETV
attr interpolationmode sample-hold
vector 393 TcpSynAttack.服务器.tcp.conn-40 rcvWnd:vector ETV
attr interpolationmode sample-hold
vector 394 TcpSynAttack.服务器.tcp.conn-40 sndAck:vector ETV
attr interpolationmode sample-hold
vector 395 TcpSynAttack.被控主机[2].tcp.conn-30 rcvSeq:vector ETV
attr interpolationmode sample-hold
vector 396 TcpSynAttack.被控主机[2].tcp.conn-30 rcvAck:vector ETV
attr interpolationmode sample-hold
vector 397 TcpSynAttack.被控主机[2].tcp.conn-30 sndWnd:vector ETV
attr interpolationmode sample-hold
vector 398 TcpSynAttack.服务器.tcp.conn-41 rcvAdv:vector ETV
attr interpolationmode sample-hold
vector 399 TcpSynAttack.服务器.tcp.conn-41 sndWnd:vector ETV
attr interpolationmode sample-hold
vector 400 TcpSynAttack.服务器.tcp.conn-41 tcpRcvQueueBytes:vector ETV
attr interpolationmode sample-hold
vector 401 TcpSynAttack.服务器.tcp.conn-41 rcvWnd:vector ETV
attr interpolationmode sample-hold
vector 402 TcpSynAttack.服务器.tcp.conn-41 sndAck:vector ETV
attr interpolationmode sample-hold
vector 403 TcpSynAttack.被控主机[3].tcp.conn-32 rcvSeq:vector ETV
attr interpolationmode sample-hold
vector 404 TcpSynAttack.被控主机[3].tcp.conn-32 rcvAck:vector ETV
attr interpolationmode sample-hold
vector 405 TcpSynAttack.被控主机[3].tcp.conn-32 sndWnd:vector ETV
attr interpolationmode sample-hold
vector 406 TcpSynAttack.服务器.tcp.conn-42 rcvAdv:vector ETV
attr interpolationmode sample-hold
vector 407 TcpSynAttack.服务器.tcp.conn-42 sndWnd:vector ETV
attr interpolationmode sample-hold
vector 408 TcpSynAttack.服务器.tcp.conn-42 tcpRcvQueueBytes:vector ETV
attr interpolationmode sample-hold
vector 409 TcpSynAttack.服务器.tcp.conn-42 rcvWnd:vector ETV
attr interpolationmode sample-hold
vector 410 TcpSynAttack.服务器.tcp.conn-42 sndAck:vector ETV
attr interpolationmode sample-hold
vector 411 TcpSynAttack.服务器.tcp.conn-43 rcvAdv:vector ETV
attr interpolationmode sample-hold
vector 412 TcpSynAttack.服务器.tcp.conn-43 sndWnd:vector ETV
attr interpolationmode sample-hold
vector 413 TcpSynAttack.服务器.tcp.conn-43 tcpRcvQueueBytes:vector ETV
attr interpolationmode sample-hold
vector 414 TcpSynAttack.服务器.tcp.conn-43 rcvWnd:vector ETV
attr interpolationmode sample-hold
vector 415 TcpSynAttack.服务器.tcp.conn-43 sndAck:vector ETV
attr interpolationmode sample-hold
vector 416 TcpSynAttack.服务器.tcp.conn-44 rcvAdv:vector ETV
attr interpolationmode sample-hold
vector 417 TcpSynAttack.服务器.tcp.conn-44 sndWnd:vector ETV
attr interpolationmode sample-hold
vector 418 TcpSynAttack.服务器.tcp.conn-44 tcpRcvQueueBytes:vector ETV
attr interpolationmode sample-hold
vector 419 TcpSynAttack.服务器.tcp.conn-44 rcvWnd:vector ETV
attr interpolationmode sample-hold
vector 420 TcpSynAttack.服务器.tcp.conn-44 sndAck:vector ETV
attr interpolationmode sample-hold
vector 421 TcpSynAttack.服务器.tcp.conn-45 rcvAdv:vector ETV
attr interpolationmode sample-hold
vector 422 TcpSynAttack.服务器.tcp.conn-45 sndWnd:vector ETV
attr interpolationmode sample-hold
vector 423 TcpSynAttack.服务器.tcp.conn-45 tcpRcvQueueBytes:vector ETV
attr interpolationmode sample-hold
vector 424 TcpSynAttack.服务器.tcp.conn-45 rcvWnd:vector ETV
attr interpolationmode sample-hold
vector 425 TcpSynAttack.服务器.tcp.conn-45 sndAck:vector ETV
attr interpolationmode sample-hold
vector 426 TcpSynAttack.被控主机[0].tcp.conn-25 rcvSeq:vector ETV
attr interpolationmode sample-hold
vector 427 TcpSynAttack.被控主机[0].tcp.conn-25 rcvAck:vector ETV
attr interpolationmode sample-hold
vector 428 TcpSynAttack.被控主机[0].tcp.conn-25 sndWnd:vector ETV
attr interpolationmode sample-hold
vector 429 TcpSynAttack.服务器.tcp.conn-46 rcvAdv:vector ETV
attr interpolationmode sample-hold
vector 430 TcpSynAttack.服务器.tcp.conn-46 sndWnd:vector ETV
attr interpolationmode sample-hold
vector 431 TcpSynAttack.服务器.tcp.conn-46 tcpRcvQueueBytes:vector ETV
attr interpolationmode sample-hold
vector 432 TcpSynAttack.服务器.tcp.conn-46 rcvWnd:vector ETV
attr interpolationmode sample-hold
vector 433 TcpSynAttack.服务器.tcp.conn-46 sndAck:vector ETV
attr interpolationmode sample-hold
vector 434 TcpSynAttack.被控主机[4].tcp.conn-33 rcvSeq:vector ETV
attr interpolationmode sample-hold
vector 435 TcpSynAttack.被控主机[4].tcp.conn-33 rcvAck:vector ETV
attr interpolationmode sample-hold
vector 436 TcpSynAttack.被控主机[4].tcp.conn-33 sndWnd:vector ETV
attr interpolationmode sample-hold
vector 437 TcpSynAttack.服务器.tcp.conn-47 rcvAdv:vector ETV
attr interpolationmode sample-hold
vector 438 TcpSynAttack.服务器.tcp.conn-47 sndWnd:vector ETV
attr interpolationmode sample-hold
vector 439 TcpSynAttack.服务器.tcp.conn-47 tcpRcvQueueBytes:vector ETV
attr interpolationmode sample-hold
vector 440 TcpSynAttack.服务器.tcp.conn-47 rcvWnd:vector ETV
attr interpolationmode sample-hold
vector 441 TcpSynAttack.服务器.tcp.conn-47 sndAck:vector ETV
attr interpolationmode sample-hold
vector 442 TcpSynAttack.被控主机[1].tcp.conn-27 rcvSeq:vector ETV
attr interpolationmode sample-hold
vector 443 TcpSynAttack.被控主机[1].tcp.conn-27 rcvAck:vector ETV
attr interpolationmode sample-hold
vector 444 TcpSynAttack.被控主机[1].tcp.conn-27 sndWnd:vector ETV
attr interpolationmode sample-hold
vector 445 TcpSynAttack.服务器.tcp.conn-48 rcvAdv:vector ETV
attr interpolationmode sample-hold
vector 446 TcpSynAttack.服务器.tcp.conn-48 sndWnd:vector ETV
attr interpolationmode sample-hold
vector 447 TcpSynAttack.服务器.tcp.conn-48 tcpRcvQueueBytes:vector ETV
attr interpolationmode sample-hold
vector 448 TcpSynAttack.服务器.tcp.conn-48 rcvWnd:vector ETV
attr interpolationmode sample-hold
vector 449 TcpSynAttack.服务器.tcp.conn-48 sndAck:vector ETV
attr interpolationmode sample-hold
vector 450 TcpSynAttack.被控主机[5].tcp.conn-35 rcvSeq:vector ETV
attr interpolationmode sample-hold
vector 451 TcpSynAttack.被控主机[5].tcp.conn-35 rcvAck:vector ETV
attr interpolationmode sample-hold
vector 452 TcpSynAttack.被控主机[5].tcp.conn-35 sndWnd:vector ETV
attr interpolationmode sample-hold
vector 453 TcpSynAttack.被控主机[0].tcp.conn-26 rcvSeq:vector ETV
attr interpolationmode sample-hold
vector 454 TcpSynAttack.被控主机[0].tcp.conn-26 rcvAck:vector ETV
attr interpolationmode sample-hold
vector 455 TcpSynAttack.被控主机[0].tcp.conn-26 sndWnd:vector ETV
attr interpolationmode sample-hold
vector 456 TcpSynAttack.被控主机[4].tcp.conn-34 rcvSeq:vector ETV
attr interpolationmode sample-hold
vector 457 TcpSynAttack.被控主机[4].tcp.conn-34 rcvAck:vector ETV
attr interpolationmode sample-hold
vector 458 TcpSynAttack.被控主机[4].tcp.conn-34 sndWnd:vector ETV
attr interpolationmode sample-hold
vector 459 TcpSynAttack.被控主机[1].tcp.conn-28 rcvSeq:vector ETV
attr interpolationmode sample-hold
vector 460 TcpSynAttack.被控主机[1].tcp.conn-28 rcvAck:vector ETV
attr interpolationmode sample-hold
vector 461 TcpSynAttack.被控主机[1].tcp.conn-28 sndWnd:vector ETV
attr interpolationmode sample-hold
vector 462 TcpSynAttack.被控主机[5].tcp.conn-36 rcvSeq:vector ETV
attr interpolationmode sample-hold
vector 463 TcpSynAttack.被控主机[5].tcp.conn-36 rcvAck:vector ETV
attr interpolationmode sample-hold
vector 464 TcpSynAttack.被控主机[5].tcp.conn-36 sndWnd:vector ETV
attr interpolationmode sample-hold
vector 465 TcpSynAttack.服务器.tcp.conn-37 rcvSeq:vector ETV
attr interpolationmode sample-hold
vector 466 TcpSynAttack.服务器.tcp.conn-37 rcvAck:vector ETV
attr interpolationmode sample-hold
vector 467 TcpSynAttack.服务器.tcp.conn-37 rcvNASeg:vector ETV
attr interpolationmode sample-hold
vector 468 TcpSynAttack.服务器.tcp.conn-38 rcvSeq:vector ETV
attr interpolationmode sample-hold
vector 469 TcpSynAttack.服务器.tcp.conn-38 rcvAck:vector ETV
attr interpolationmode sample-hold
vector 470 TcpSynAttack.服务器.tcp.conn-38 rcvNASeg:vector ETV
attr interpolationmode sample-hold
vector 471 TcpSynAttack.服务器.tcp.conn-39 rcvSeq:vector ETV
attr interpolationmode sample-hold
vector 472 TcpSynAttack.服务器.tcp.conn-39 rcvAck:vector ETV
attr interpolationmode sample-hold
vector 473 TcpSynAttack.服务器.tcp.conn-39 rcvNASeg:vector ETV
attr interpolationmode sample-hold
vector 474 TcpSynAttack.服务器.tcp.conn-40 rcvSeq:vector ETV
attr interpolationmode sample-hold
vector 475 TcpSynAttack.服务器.tcp.conn-40 rcvAck:vector ETV
attr interpolationmode sample-hold
vector 476 TcpSynAttack.服务器.tcp.conn-40 rcvNASeg:vector ETV
attr interpolationmode sample-hold
vector 477 TcpSynAttack.服务器.tcp.conn-41 rcvSeq:vector ETV
attr interpolationmode sample-hold
vector 478 TcpSynAttack.服务器.tcp.conn-41 rcvAck:vector ETV
attr interpolationmode sample-hold
vector 479 TcpSynAttack.服务器.tcp.conn-41 rcvNASeg:vector ETV
attr interpolationmode sample-hold
vector 480 TcpSynAttack.服务器.tcp.conn-42 rcvSeq:vector ETV
attr interpolationmode sample-hold
vector 481 TcpSynAttack.服务器.tcp.conn-42 rcvAck:vector ETV
attr interpolationmode sample-hold
vector 482 TcpSynAttack.服务器.tcp.conn-42 rcvNASeg:vector ETV
attr interpolationmode sample-hold
vector 483 TcpSynAttack.服务器.tcp.conn-43 rcvSeq:vector ETV
attr interpolationmode sample-hold
vector 484 TcpSynAttack.服务器.tcp.conn-43 rcvAck:vector ETV
attr interpolationmode sample-hold
vector 485 TcpSynAttack.服务器.tcp.conn-43 rcvNASeg:vector ETV
attr interpolationmode sample-hold
vector 486 TcpSynAttack.服务器.tcp.conn-44 rcvSeq:vector ETV
attr interpolationmode sample-hold
vector 487 TcpSynAttack.服务器.tcp.conn-44 rcvAck:vector ETV
attr interpolationmode sample-hold
vector 488 TcpSynAttack.服务器.tcp.conn-44 rcvNASeg:vector ETV
attr interpolationmode sample-hold
vector 489 TcpSynAttack.服务器.tcp.conn-45 rcvSeq:vector ETV
attr interpolationmode sample-hold
vector 490 TcpSynAttack.服务器.tcp.conn-45 rcvAck:vector ETV
attr interpolationmode sample-hold
vector 491 TcpSynAttack.服务器.tcp.conn-45 rcvNASeg:vector ETV
attr interpolationmode sample-hold
vector 492 TcpSynAttack.服务器.tcp.conn-46 rcvSeq:vector ETV
attr interpolationmode sample-hold
vector 493 TcpSynAttack.服务器.tcp.conn-46 rcvAck:vector ETV
attr interpolationmode sample-hold
vector 494 TcpSynAttack.服务器.tcp.conn-46 rcvNASeg:vector ETV
attr interpolationmode sample-hold
vector 495 TcpSynAttack.服务器.tcp.conn-47 rcvSeq:vector ETV
attr interpolationmode sample-hold
vector 496 TcpSynAttack.服务器.tcp.conn-47 rcvAck:vector ETV
attr interpolationmode sample-hold
vector 497 TcpSynAttack.服务器.tcp.conn-47 rcvNASeg:vector ETV
attr interpolationmode sample-hold
vector 498 TcpSynAttack.服务器.tcp.conn-48 rcvSeq:vector ETV
attr interpolationmode sample-hold
vector 499 TcpSynAttack.服务器.tcp.conn-48 rcvAck:vector ETV
attr interpolationmode sample-hold
vector 500 TcpSynAttack.服务器.tcp.conn-48 rcvNASeg:vector ETV
attr interpolationmode sample-hold
vector 501 TcpSynAttack.服务器.ipv4.arp arpRequestSent:vector(packetBytes) ETV
attr source arpRequestSent
attr title "ARP request sent, vector(packetBytes)"
vector 502 TcpSynAttack.被控主机[2].ipv4.arp arpReplySent:vector(packetBytes) ETV
attr source arpReplySent
attr title "ARP replies sent, vector(packetBytes)"
vector 503 TcpSynAttack.被控主机[3].ipv4.arp arpReplySent:vector(packetBytes) ETV
attr source arpReplySent
attr title "ARP replies sent, vector(packetBytes)"
vector 504 TcpSynAttack.路由器[0].ipv4.arp arpRequestSent:vector(packetBytes) ETV
attr source arpRequestSent
attr title "ARP request sent, vector(packetBytes)"
vector 505 TcpSynAttack.被控主机[0].ipv4.arp arpReplySent:vector(packetBytes) ETV
attr source arpReplySent
attr title "ARP replies sent, vector(packetBytes)"
vector 506 TcpSynAttack.路由器[2].ipv4.arp arpRequestSent:vector(packetBytes) ETV
attr source arpRequestSent
attr title "ARP request sent, vector(packetBytes)"
vector 507 TcpSynAttack.被控主机[4].ipv4.arp arpReplySent:vector(packetBytes) ETV
attr source arpReplySent
attr title "ARP replies sent, vector(packetBytes)"
vector 508 TcpSynAttack.路由器[1].ipv4.arp arpReplySent:vector(packetBytes) ETV
attr source arpReplySent
attr title "ARP replies sent, vector(packetBytes)"
vector 509 TcpSynAttack.被控主机[1].ipv4.arp arpReplySent:vector(packetBytes) ETV
attr source arpReplySent
attr title "ARP replies sent, vector(packetBytes)"
vector 510 TcpSynAttack.被控主机[5].ipv4.arp arpReplySent:vector(packetBytes) ETV
attr source arpReplySent
attr title "ARP replies sent, vector(packetBytes)"
321	80827 71 2659 6393 76 121 5 0 0 0 0
427	80898 263 3121 7173 76.0069607 121.0112811 9 19000001 19000001 171000009 3.249000342e+15
426	81161 263 3121 7173 76.0069607 121.0112811 9 19000960 19000961 171008644 3.2493284803021e+15
324	81424 71 2659 6393 76 121 5 0 0 0 0
322	81495 248 2659 7132 76 121.0106091 10 7504 19008465 171083689 3.251895731216e+15
323	81743 86 2659 6393 76 121 5 7504 7504 37520 281550080
428	81829 126 3121 7132 76.0069607 121.0106091 5 7504 7504 37520 281550080
325	81955 71 2660 6394 76 121 5 0 0 0 0
454	82026 263 3276 7499 76.0096487 121.0177927 9 19000001 19000001 171000009 3.249000342e+15
453	82289 263 3276 7499 76.0096487 121.0177927 9 19001632 19001633 171014692 3.2495583199839e+15
328	82552 71 2660 6394 76 121 5 0 0 0 0
326	82623 248 2660 7457 76 121.0170407 10 7504 19009137 171089737 3.2521256616729e+15
327	82871 86 2660 6394 76 121 5 7504 7504 37520 281550080
455	82957 126 3276 7457 76.0096487 121.0170407 5 7504 7504 37520 281550080
329	83083 71 2661 6395 76 121 5 0 0 0 0
443	83154 263 3205 7355 76.0083047 121.0149295 9 19000001 19000001 171000009 3.249000342e+15
442	83417 263 3205 7355 76.0083047 121.0149295 9 19001296 19001297 171011668 3.2494433991269e+15
332	83680 71 2661 6395 76 121 5 0 0 0 0
330	83751 248 2661 7324 76 121.0142575 10 7504 19008801 171086713 3.2520106954284e+15
331	83999 86 2661 6395 76 121 5 7504 7504 37520 281550080
444	84085 126 3205 7324 76.0083047 121.0142575 5 7504 7504 37520 281550080
333	84211 71 2662 6396 76 121 5 0 0 0 0
460	84282 263 3319 7647 76.0109927 121.0210087 9 19000001 19000001 171000009 3.249000342e+15
459	84545 263 3319 7647 76.0109927 121.0210087 9 19001968 19001969 171017716 3.249673242873e+15
336	84808 71 2662 6396 76 121 5 0 0 0 0
334	84879 248 2662 7569 76 121.0190567 10 7504 19009473 171092761 3.2522406299496e+15
335	85127 86 2662 6396 76 121 5 7504 7504 37520 281550080
461	85213 126 3319 7569 76.0109927 121.0190567 5 7504 7504 37520 281550080
337	85339 71 2663 6397 76 121 5 0 0 0 0
380	85410 263 2855 6649 76.0023044 121.0029764 9 19000001 19000001 171000009 3.249000342e+15
379	85673 263 2855 6649 76.0023044 121.0029764 9 19000288 19000289 171002596 3.2490986487488e+15
340	85936 71 2663 6397 76 121 5 0 0 0 0
338	86007 248 2663 6597 76 121.0023044 10 7504 19007793 171077641 3.2516658088877e+15
339	86255 86 2663 6397 76 121 5 7504 7504 37520 281550080
381	86341 126 2855 6597 76.0023044 121.0023044 5 7504 7504 37520 281550080
341	86467 71 2664 6398 76 121 5 0 0 0 0
396	86538 263 2956 7218 76.0036484 121.0117124 9 19000001 19000001 171000009 3.249000342e+15
395	86801 263 2956 7218 76.0036484 121.0117124 9 19000624 19000625 171005620 3.2492135635094e+15
344	87064 71 2664 6398 76 121 5 0 0 0 0
342	87135 248 2664 7160 76 121.0110404 10 7504 19008129 171080665 3.2517807690358e+15
343	87383 86 2664 6398 76 121 5 7504 7504 37520 281550080
397	87469 126 2956 7160 76.0036484 121.0110404 5 7504 7504 37520 281550080
345	87595 71 2665 6399 76 121 5 0 0 0 0
388	87666 263 2905 6733 76.0029764 121.0043204 9 19000001 19000001 171000009 3.249000342e+15
387	87929 263 2905 6733 76.0029764 121.0043204 9 19000456 19000457 171004108 3.2491561058751e+15
348	88192 71 2665 6399 76 121 5 0 0 0 0
346	88263 248 2665 6701 76 121.0036484 10 7504 19007961 171079153 3.2517232887077e+15
347	88511 86 2665 6399 76 121 5 7504 7504 37520 281550080
389	88597 126 2905 6701 76.0029764 121.0036484 5 7504 7504 37520 281550080
349	88723 71 2666 6400 76 121 5 0 0 0 0
404	88794 263 2985 7281 76.0043204 121.0130564 9 19000001 19000001 171000009 3.249000342e+15
403	89057 263 2985 7281 76.0043204 121.0130564 9 19000792 19000793 171007132 3.2492710216517e+15
352	89320 71 2666 6400 76 121 5 0 0 0 0
350	89391 248 2666 7256 76 121.0123844 10 7504 19008297 171082177 3.2518382498719e+15
351	89639 86 2666 6400 76 121 5 7504 7504 37520 281550080
405	89725 126 2985 7256 76.0043204 121.0123844 5 7504 7504 37520 281550080
353	89851 71 2667 6401 76 121 5 0 0 0 0
435	89922 263 3165 7274 76.0076327 121.0126251 9 19000001 19000001 171000009 3.249000342e+15
434	90185 263 3165 7274 76.0076327 121.0126251 9 19001128 19001129 171010156 3.2493859394605e+15
356	90448 71 2667 6401 76 121 5 0 0 0 0
354	90519 248 2667 7240 76 121.0119531 10 7504 19008633 171085201 3.2519532130682e+15
355	90767 86 2667 6401 76 121 5 7504 7504 37520 281550080
436	90853 126 3165 7240 76.0076327 121.0119531 5 7504 7504 37520 281550080
357	90979 71 2668 6402 76 121 5 0 0 0 0
457	91050 263 3301 7617 76.0103207 121.0200171 9 19000001 19000001 171000009 3.249000342e+15
456	91313 263 3301 7617 76.0103207 121.0200171 9 19001800 19001801 171016204 3.2496157811744e+15
360	91576 71 2668 6402 76 121 5 0 0 0 0
358	91647 248 2668 7592 76 121.0193451 10 7504 19009305 171091249 3.2521831455572e+15
359	91895 86 2668 6402 76 121 5 7504 7504 37520 281550080
458	91981 126 3301 7592 76.0103207 121.0193451 5 7504 7504 37520 281550080
361	92107 71 2669 6403 76 121 5 0 0 0 0
451	92178 263 3245 7556 76.0089767 121.0186731 9 19000001 19000001 171000009 3.249000342e+15
450	92441 263 3245 7556 76.0089767 121.0186731 9 19001464 19001465 171013180 3.2495008593014e+15
364	92704 71 2669 6403 76 121 5 0 0 0 0
362	92775 248 2669 7519 76 121.0180011 10 7504 19008969 171088225 3.2520681782967e+15
363	93023 86 2669 6403 76 121 5 7504 7504 37520 281550080
452	93109 126 3245 7519 76.0089767 121.0180011 5 7504 7504 37520 281550080
365	93235 71 2670 6404 76 121 5 0 0 0 0
463	93306 263 3331 7659 76.0116647 121.0216807 9 19000001 19000001 171000009 3.249000342e+15
462	93569 263 3331 7659 76.0116647 121.0216807 9 19002136 19002137 171019228 3.2497307050796e+15
368	93832 71 2670 6404 76 121 5 0 0 0 0
366	93903 248 2670 7641 76 121.0206891 10 7504 19009641 171094273 3.2522981148499e+15
367	94151 86 2670 6404 76 121 5 7504 7504 37520 281550080
464	94237 126 3331 7641 76.0116647 121.0206891 5 7504 7504 37520 281550080
vector 511 TcpSynAttack.被控主机[0].tcp.conn-49 tcpRcvQueueBytes:vector ETV
attr interpolationmode sample-hold
vector 512 TcpSynAttack.被控主机[0].tcp.conn-49 rcvAdv:vector ETV
[...]
6214	7299924 18 151463 151463 451 451 1 0 0 0 0
6215	7299942 18 151464 151464 451 451 1 0 0 0 0
6216	7299960 21 151464 151464 451 451 1 7504 7504 7504 56310016
6217	7299981 21 151464 151464 451 451 1 7504 7504 7504 56310016
6218	7300002 18 151464 151464 451 451 1 0 0 0 0
6219	7300020 18 151465 151465 451 451 1 0 0 0 0
6220	7300038 21 151465 151465 451 451 1 7504 7504 7504 56310016
6221	7300059 21 151465 151465 451 451 1 7504 7504 7504 56310016
6222	7300080 18 151465 151465 451 451 1 0 0 0 0
6223	7300098 18 151466 151466 451 451 1 0 0 0 0
6224	7300116 21 151466 151466 451 451 1 7504 7504 7504 56310016
6225	7300137 21 151466 151466 451 451 1 7504 7504 7504 56310016
6226	7300158 18 151466 151466 451 451 1 0 0 0 0
6227	7300176 18 151467 151467 451 451 1 0 0 0 0
6228	7300194 21 151467 151467 451 451 1 7504 7504 7504 56310016
6229	7300215 21 151467 151467 451 451 1 7504 7504 7504 56310016
6230	7300236 18 151467 151467 451 451 1 0 0 0 0
6231	7300254 18 151468 151468 451 451 1 0 0 0 0
6232	7300272 21 151468 151468 451 451 1 7504 7504 7504 56310016
6233	7300293 21 151468 151468 451 451 1 7504 7504 7504 56310016
6234	7300314 18 151468 151468 451 451 1 0 0 0 0
6235	7300332 18 151469 151469 451 451 1 0 0 0 0
6236	7300350 21 151469 151469 451 451 1 7504 7504 7504 56310016
6237	7300371 21 151469 151469 451 451 1 7504 7504 7504 56310016
6238	7300392 18 151469 151469 451 451 1 0 0 0 0
6239	7300410 18 151470 151470 451 451 1 0 0 0 0
6240	7300428 21 151470 151470 451 451 1 7504 7504 7504 56310016
6241	7300449 21 151470 151470 451 451 1 7504 7504 7504 56310016
6242	7300470 18 151470 151470 451 451 1 0 0 0 0
6243	7300488 18 151471 151471 451 451 1 0 0 0 0
6244	7300506 21 151471 151471 451 451 1 7504 7504 7504 56310016
6245	7300527 21 151471 151471 451 451 1 7504 7504 7504 56310016
6246	7300548 18 151471 151471 451 451 1 0 0 0 0
6247	7300566 18 151472 151472 451 451 1 0 0 0 0
6248	7300584 21 151472 151472 451 451 1 7504 7504 7504 56310016
6249	7300605 21 151472 151472 451 451 1 7504 7504 7504 56310016
6250	7300626 18 151472 151472 451 451 1 0 0 0 0
6251	7300644 18 151473 151473 451 451 1 0 0 0 0
6252	7300662 21 151473 151473 451 451 1 7504 7504 7504 56310016
6253	7300683 21 151473 151473 451 451 1 7504 7504 7504 56310016
6254	7300704 18 151473 151473 451 451 1 0 0 0 0
6255	7300722 18 151474 151474 451 451 1 0 0 0 0
6256	7300740 21 151474 151474 451 451 1 7504 7504 7504 56310016
6257	7300761 21 151474 151474 451 451 1 7504 7504 7504 56310016
6258	7300782 18 151474 151474 451 451 1 0 0 0 0
6259	7300800 18 151475 151475 451 451 1 0 0 0 0
6260	7300818 21 151475 151475 451 451 1 7504 7504 7504 56310016
6261	7300839 21 151475 151475 451 451 1 7504 7504 7504 56310016
6262	7300860 18 151475 151475 451 451 1 0 0 0 0
6263	7300878 18 151476 151476 451 451 1 0 0 0 0
6264	7300896 21 151476 151476 451 451 1 7504 7504 7504 56310016
6265	7300917 21 151476 151476 451 451 1 7504 7504 7504 56310016
6266	7300938 18 151476 151476 451 451 1 0 0 0 0
6267	7300956 18 151477 151477 451 451 1 0 0 0 0
6268	7300974 21 151477 151477 451 451 1 7504 7504 7504 56310016
6269	7300995 21 151477 151477 451 451 1 7504 7504 7504 56310016
6270	7301016 18 151477 151477 451 451 1 0 0 0 0
6271	7301034 18 151478 151478 451 451 1 0 0 0 0
6272	7301052 21 151478 151478 451 451 1 7504 7504 7504 56310016
6273	7301073 21 151478 151478 451 451 1 7504 7504 7504 56310016
6274	7301094 18 151478 151478 451 451 1 0 0 0 0
6275	7301112 18 151479 151479 451 451 1 0 0 0 0
6276	7301130 21 151479 151479 451 451 1 7504 7504 7504 56310016
6277	7301151 21 151479 151479 451 451 1 7504 7504 7504 56310016
6278	7301172 18 151479 151479 451 451 1 0 0 0 0
6279	7301190 18 151480 151480 451 451 1 0 0 0 0
6280	7301208 21 151480 151480 451 451 1 7504 7504 7504 56310016
6281	7301229 21 151480 151480 451 451 1 7504 7504 7504 56310016
6282	7301250 18 151480 151480 451 451 1 0 0 0 0
6283	7301268 18 151481 151481 451 451 1 0 0 0 0
6284	7301286 21 151481 151481 451 451 1 7504 7504 7504 56310016
6285	7301307 21 151481 151481 451 451 1 7504 7504 7504 56310016
6286	7301328 18 151481 151481 451 451 1 0 0 0 0
6287	7301346 18 151482 151482 451 451 1 0 0 0 0
6288	7301364 21 151482 151482 451 451 1 7504 7504 7504 56310016
6289	7301385 21 151482 151482 451 451 1 7504 7504 7504 56310016
6290	7301406 18 151482 151482 451 451 1 0 0 0 0
6291	7301424 18 151483 151483 451 451 1 0 0 0 0
6292	7301442 21 151483 151483 451 451 1 7504 7504 7504 56310016
6293	7301463 21 151483 151483 451 451 1 7504 7504 7504 56310016
6294	7301484 18 151483 151483 451 451 1 0 0 0 0
6295	7301502 18 151484 151484 451 451 1 0 0 0 0
6296	7301520 21 151484 151484 451 451 1 7504 7504 7504 56310016
6297	7301541 21 151484 151484 451 451 1 7504 7504 7504 56310016
6298	7301562 18 151484 151484 451 451 1 0 0 0 0
6299	7301580 18 151485 151485 451 451 1 0 0 0 0
6300	7301598 21 151485 151485 451 451 1 7504 7504 7504 56310016
6301	7301619 21 151485 151485 451 451 1 7504 7504 7504 56310016
6302	7301640 18 151485 151485 451 451 1 0 0 0 0
6303	7301658 18 151486 151486 451 451 1 0 0 0 0
6304	7301676 21 151486 151486 451 451 1 7504 7504 7504 56310016
6305	7301697 21 151486 151486 451 451 1 7504 7504 7504 56310016
6306	7301718 18 151486 151486 451 451 1 0 0 0 0
6307	7301736 18 151487 151487 451 451 1 0 0 0 0
6308	7301754 21 151487 151487 451 451 1 7504 7504 7504 56310016
6309	7301775 21 151487 151487 451 451 1 7504 7504 7504 56310016
6310	7301796 18 151487 151487 451 451 1 0 0 0 0
6311	7301814 18 151488 151488 451 451 1 0 0 0 0
6312	7301832 21 151488 151488 451 451 1 7504 7504 7504 56310016
6313	7301853 21 151488 151488 451 451 1 7504 7504 7504 56310016
6314	7301874 18 151488 151488 451 451 1 0 0 0 0
6315	7301892 18 151489 151489 451 451 1 0 0 0 0
6316	7301910 21 151489 151489 451 451 1 7504 7504 7504 56310016
6317	7301931 21 151489 151489 451 451 1 7504 7504 7504 56310016
6318	7301952 18 151489 151489 451 451 1 0 0 0 0
6319	7301970 18 151490 151490 451 451 1 0 0 0 0
6320	7301988 21 151490 151490 451 451 1 7504 7504 7504 56310016
6321	7302009 21 151490 151490 451 451 1 7504 7504 7504 56310016
6322	7302030 18 151490 151490 451 451 1 0 0 0 0
6323	7302048 18 151491 151491 451 451 1 0 0 0 0
6324	7302066 21 151491 151491 451 451 1 7504 7504 7504 56310016
6325	7302087 21 151491 151491 451 451 1 7504 7504 7504 56310016
6326	7302108 18 151491 151491 451 451 1 0 0 0 0
6327	7302126 18 151492 151492 451 451 1 0 0 0 0
6328	7302144 21 151492 151492 451 451 1 7504 7504 7504 56310016
6329	7302165 21 151492 151492 451 451 1 7504 7504 7504 56310016
6330	7302186 18 151492 151492 451 451 1 0 0 0 0
6331	7302204 18 151493 151493 451 451 1 0 0 0 0
6332	7302222 21 151493 151493 451 451 1 7504 7504 7504 56310016
6333	7302243 21 151493 151493 451 451 1 7504 7504 7504 56310016
6334	7302264 18 151493 151493 451 451 1 0 0 0 0
6335	7302282 18 151494 151494 451 451 1 0 0 0 0
6336	7302300 21 151494 151494 451 451 1 7504 7504 7504 56310016
6337	7302321 21 151494 151494 451 451 1 7504 7504 7504 56310016
6338	7302342 18 151494 151494 451 451 1 0 0 0 0
6339	7302360 18 151495 151495 451 451 1 0 0 0 0
6340	7302378 21 151495 151495 451 451 1 7504 7504 7504 56310016
6341	7302399 21 151495 151495 451 451 1 7504 7504 7504 56310016
6342	7302420 18 151495 151495 451 451 1 0 0 0 0
6343	7302438 18 151496 151496 451 451 1 0 0 0 0
6344	7302456 21 151496 151496 451 451 1 7504 7504 7504 56310016
6345	7302477 21 151496 151496 451 451 1 7504 7504 7504 56310016
6346	7302498 18 151496 151496 451 451 1 0 0 0 0
6347	7302516 18 151497 151497 451 451 1 0 0 0 0
6348	7302534 21 151497 151497 451 451 1 7504 7504 7504 56310016
6349	7302555 21 151497 151497 451 451 1 7504 7504 7504 56310016
6350	7302576 18 151497 151497 451 451 1 0 0 0 0
6351	7302594 18 151498 151498 451 451 1 0 0 0 0
6352	7302612 21 151498 151498 451 451 1 7504 7504 7504 56310016
6353	7302633 21 151498 151498 451 451 1 7504 7504 7504 56310016
6354	7302654 18 151498 151498 451 451 1 0 0 0 0
6355	7302672 18 151499 151499 451 451 1 0 0 0 0
6356	7302690 21 151499 151499 451 451 1 7504 7504 7504 56310016
6357	7302711 21 151499 151499 451 451 1 7504 7504 7504 56310016
6358	7302732 18 151499 151499 451 451 1 0 0 0 0
6359	7302750 18 151500 151500 451 451 1 0 0 0 0
6360	7302768 21 151500 151500 451 451 1 7504 7504 7504 56310016
6361	7302789 21 151500 151500 451 451 1 7504 7504 7504 56310016
6362	7302810 18 151500 151500 451 451 1 0 0 0 0
6363	7302828 18 151501 151501 451 451 1 0 0 0 0
6364	7302846 21 151501 151501 451 451 1 7504 7504 7504 56310016
6365	7302867 21 151501 151501 451 451 1 7504 7504 7504 56310016
6366	7302888 18 151501 151501 451 451 1 0 0 0 0
6367	7302906 18 151502 151502 451 451 1 0 0 0 0
6368	7302924 21 151502 151502 451 451 1 7504 7504 7504 56310016
6369	7302945 21 151502 151502 451 451 1 7504 7504 7504 56310016
6370	7302966 18 151502 151502 451 451 1 0 0 0 0
6371	7302984 18 151503 151503 451 451 1 0 0 0 0
6372	7303002 21 151503 151503 451 451 1 7504 7504 7504 56310016
6373	7303023 21 151503 151503 451 451 1 7504 7504 7504 56310016
6374	7303044 18 151503 151503 451 451 1 0 0 0 0
6375	7303062 18 151504 151504 451 451 1 0 0 0 0
6376	7303080 21 151504 151504 451 451 1 7504 7504 7504 56310016
6377	7303101 21 151504 151504 451 451 1 7504 7504 7504 56310016
6378	7303122 18 151504 151504 451 451 1 0 0 0 0
6379	7303140 18 151505 151505 451 451 1 0 0 0 0
6380	7303158 21 151505 151505 451 451 1 7504 7504 7504 56310016
6381	7303179 21 151505 151505 451 451 1 7504 7504 7504 56310016
6382	7303200 18 151505 151505 451 451 1 0 0 0 0
6383	7303218 18 151506 151506 451 451 1 0 0 0 0
6384	7303236 21 151506 151506 451 451 1 7504 7504 7504 56310016
6385	7303257 21 151506 151506 451 451 1 7504 7504 7504 56310016
6386	7303278 18 151506 151506 451 451 1 0 0 0 0
6387	7303296 18 151507 151507 451 451 1 0 0 0 0
6388	7303314 21 151507 151507 451 451 1 7504 7504 7504 56310016
6389	7303335 21 151507 151507 451 451 1 7504 7504 7504 56310016
6390	7303356 18 151507 151507 451 451 1 0 0 0 0
6391	7303374 18 151508 151508 451 451 1 0 0 0 0
6392	7303392 21 151508 151508 451 451 1 7504 7504 7504 56310016
6393	7303413 21 151508 151508 451 451 1 7504 7504 7504 56310016
6394	7303434 18 151508 151508 451 451 1 0 0 0 0
6395	7303452 18 151509 151509 451 451 1 0 0 0 0
6396	7303470 21 151509 151509 451 451 1 7504 7504 7504 56310016
6397	7303491 21 151509 151509 451 451 1 7504 7504 7504 56310016
6398	7303512 18 151509 151509 451 451 1 0 0 0 0
6399	7303530 18 151510 151510 451 451 1 0 0 0 0
6400	7303548 21 151510 151510 451 451 1 7504 7504 7504 56310016
6401	7303569 21 151510 151510 451 451 1 7504 7504 7504 56310016
6402	7303590 18 151510 151510 451 451 1 0 0 0 0
6403	7303608 18 151511 151511 451 451 1 0 0 0 0
6404	7303626 21 151511 151511 451 451 1 7504 7504 7504 56310016
6405	7303647 21 151511 151511 451 451 1 7504 7504 7504 56310016
6406	7303668 18 151511 151511 451 451 1 0 0 0 0
6407	7303686 18 151512 151512 451 451 1 0 0 0 0
6408	7303704 21 151512 151512 451 451 1 7504 7504 7504 56310016
6409	7303725 21 151512 151512 451 451 1 7504 7504 7504 56310016
6410	7303746 18 151512 151512 451 451 1 0 0 0 0
6411	7303764 18 151513 151513 451 451 1 0 0 0 0
6412	7303782 21 151513 151513 451 451 1 7504 7504 7504 56310016
6413	7303803 21 151513 151513 451 451 1 7504 7504 7504 56310016
6414	7303824 18 151513 151513 451 451 1 0 0 0 0
6415	7303842 18 151514 151514 451 451 1 0 0 0 0
6416	7303860 21 151514 151514 451 451 1 7504 7504 7504 56310016
6417	7303881 21 151514 151514 451 451 1 7504 7504 7504 56310016
6418	7303902 18 151514 151514 451 451 1 0 0 0 0
6419	7303920 18 151515 151515 451 451 1 0 0 0 0
6420	7303938 21 151515 151515 451 451 1 7504 7504 7504 56310016
6421	7303959 21 151515 151515 451 451 1 7504 7504 7504 56310016
6422	7303980 18 151515 151515 451 451 1 0 0 0 0
6423	7303998 18 151516 151516 451 451 1 0 0 0 0
6424	7304016 21 151516 151516 451 451 1 7504 7504 7504 56310016
6425	7304037 21 151516 151516 451 451 1 7504 7504 7504 56310016
6426	7304058 18 151516 151516 451 451 1 0 0 0 0
6427	7304076 18 151517 151517 451 451 1 0 0 0 0
6428	7304094 21 151517 151517 451 451 1 7504 7504 7504 56310016
6429	7304115 21 151517 151517 451 451 1 7504 7504 7504 56310016
6430	7304136 18 151517 151517 451 451 1 0 0 0 0
6431	7304154 18 151518 151518 451 451 1 0 0 0 0
6432	7304172 21 151518 151518 451 451 1 7504 7504 7504 56310016
6433	7304193 21 151518 151518 451 451 1 7504 7504 7504 56310016
6434	7304214 18 151518 151518 451 451 1 0 0 0 0
6435	7304232 18 151519 151519 451 451 1 0 0 0 0
6436	7304250 21 151519 151519 451 451 1 7504 7504 7504 56310016
6437	7304271 21 151519 151519 451 451 1 7504 7504 7504 56310016
6438	7304292 18 151519 151519 451 451 1 0 0 0 0
6439	7304310 18 151520 151520 451 451 1 0 0 0 0
6440	7304328 21 151520 151520 451 451 1 7504 7504 7504 56310016
6441	7304349 21 151520 151520 451 451 1 7504 7504 7504 56310016
6442	7304370 18 151520 151520 451 451 1 0 0 0 0
6443	7304388 18 151521 151521 451 451 1 0 0 0 0
6444	7304406 21 151521 151521 451 451 1 7504 7504 7504 56310016
6445	7304427 21 151521 151521 451 451 1 7504 7504 7504 56310016
6446	7304448 18 151521 151521 451 451 1 0 0 0 0
6447	7304466 18 151522 151522 451 451 1 0 0 0 0
6448	7304484 21 151522 151522 451 451 1 7504 7504 7504 56310016
6449	7304505 21 151522 151522 451 451 1 7504 7504 7504 56310016
6450	7304526 18 151522 151522 451 451 1 0 0 0 0
6451	7304544 18 151523 151523 451 451 1 0 0 0 0
6452	7304562 21 151523 151523 451 451 1 7504 7504 7504 56310016
6453	7304583 21 151523 151523 451 451 1 7504 7504 7504 56310016
6454	7304604 18 151523 151523 451 451 1 0 0 0 0
6455	7304622 18 151524 151524 451 451 1 0 0 0 0
6456	7304640 21 151524 151524 451 451 1 7504 7504 7504 56310016
6457	7304661 21 151524 151524 451 451 1 7504 7504 7504 56310016
6458	7304682 18 151524 151524 451 451 1 0 0 0 0
6459	7304700 18 151525 151525 451 451 1 0 0 0 0
6460	7304718 21 151525 151525 451 451 1 7504 7504 7504 56310016
6461	7304739 21 151525 151525 451 451 1 7504 7504 7504 56310016
6462	7304760 18 151525 151525 451 451 1 0 0 0 0
6463	7304778 18 151526 151526 451 451 1 0 0 0 0
6464	7304796 21 151526 151526 451 451 1 7504 7504 7504 56310016
6465	7304817 21 151526 151526 451 451 1 7504 7504 7504 56310016
6466	7304838 18 151526 151526 451 451 1 0 0 0 0
6467	7304856 18 151527 151527 451 451 1 0 0 0 0
6468	7304874 21 151527 151527 451 451 1 7504 7504 7504 56310016
6469	7304895 21 151527 151527 451 451 1 7504 7504 7504 56310016
6470	7304916 18 151527 151527 451 451 1 0 0 0 0
6471	7304934 18 151528 151528 451 451 1 0 0 0 0
6472	7304952 21 151528 151528 451 451 1 7504 7504 7504 56310016
6473	7304973 21 151528 151528 451 451 1 7504 7504 7504 56310016
6474	7304994 18 151528 151528 451 451 1 0 0 0 0
6475	7305012 18 151529 151529 451 451 1 0 0 0 0
6476	7305030 21 151529 151529 451 451 1 7504 7504 7504 56310016
6477	7305051 21 151529 151529 451 451 1 7504 7504 7504 56310016
6478	7305072 18 151529 151529 451 451 1 0 0 0 0
6479	7305090 18 151530 151530 451 451 1 0 0 0 0
6480	7305108 21 151530 151530 451 451 1 7504 7504 7504 56310016
6481	7305129 21 151530 151530 451 451 1 7504 7504 7504 56310016
6482	7305150 18 151530 151530 451 451 1 0 0 0 0
6483	7305168 18 151531 151531 451 451 1 0 0 0 0
6484	7305186 21 151531 151531 451 451 1 7504 7504 7504 56310016
6485	7305207 21 151531 151531 451 451 1 7504 7504 7504 56310016
6486	7305228 18 151531 151531 451 451 1 0 0 0 0
6487	7305246 18 151532 151532 451 451 1 0 0 0 0
6488	7305264 21 151532 151532 451 451 1 7504 7504 7504 56310016
6489	7305285 21 151532 151532 451 451 1 7504 7504 7504 56310016
6490	7305306 18 151532 151532 451 451 1 0 0 0 0
6491	7305324 18 151533 151533 451 451 1 0 0 0 0
6492	7305342 21 151533 151533 451 451 1 7504 7504 7504 56310016
6493	7305363 21 151533 151533 451 451 1 7504 7504 7504 56310016
6494	7305384 18 151533 151533 451 451 1 0 0 0 0
6495	7305402 18 151534 151534 451 451 1 0 0 0 0
6496	7305420 21 151534 151534 451 451 1 7504 7504 7504 56310016
6497	7305441 21 151534 151534 451 451 1 7504 7504 7504 56310016
6498	7305462 18 151534 151534 451 451 1 0 0 0 0
6499	7305480 18 151535 151535 451 451 1 0 0 0 0
6500	7305498 21 151535 151535 451 451 1 7504 7504 7504 56310016
6501	7305519 21 151535 151535 451 451 1 7504 7504 7504 56310016
6502	7305540 18 151535 151535 451 451 1 0 0 0 0
6503	7305558 18 151536 151536 451 451 1 0 0 0 0
6504	7305576 21 151536 151536 451 451 1 7504 7504 7504 56310016
6505	7305597 21 151536 151536 451 451 1 7504 7504 7504 56310016
6506	7305618 18 151536 151536 451 451 1 0 0 0 0
6507	7305636 18 151537 151537 451 451 1 0 0 0 0
6508	7305654 21 151537 151537 451 451 1 7504 7504 7504 56310016
6509	7305675 21 151537 151537 451 451 1 7504 7504 7504 56310016
6510	7305696 18 151537 151537 451 451 1 0 0 0 0
6511	7305714 18 151538 151538 451 451 1 0 0 0 0
6512	7305732 21 151538 151538 451 451 1 7504 7504 7504 56310016
6513	7305753 21 151538 151538 451 451 1 7504 7504 7504 56310016
6514	7305774 18 151538 151538 451 451 1 0 0 0 0
6515	7305792 18 151539 151539 451 451 1 0 0 0 0
6516	7305810 21 151539 151539 451 451 1 7504 7504 7504 56310016
6517	7305831 21 151539 151539 451 451 1 7504 7504 7504 56310016
6518	7305852 18 151539 151539 451 451 1 0 0 0 0
6519	7305870 18 151540 151540 451 451 1 0 0 0 0
6520	7305888 21 151540 151540 451 451 1 7504 7504 7504 56310016
6521	7305909 21 151540 151540 451 451 1 7504 7504 7504 56310016
6522	7305930 18 151540 151540 451 451 1 0 0 0 0
6523	7305948 18 151541 151541 451 451 1 0 0 0 0
6524	7305966 21 151541 151541 451 451 1 7504 7504 7504 56310016
6525	7305987 21 151541 151541 451 451 1 7504 7504 7504 56310016
6526	7306008 18 151541 151541 451 451 1 0 0 0 0
6527	7306026 18 151542 151542 451 451 1 0 0 0 0
6528	7306044 21 151542 151542 451 451 1 7504 7504 7504 56310016
6529	7306065 21 151542 151542 451 451 1 7504 7504 7504 56310016
6530	7306086 18 151542 151542 451 451 1 0 0 0 0
6531	7306104 18 151543 151543 451 451 1 0 0 0 0
6532	7306122 21 151543 151543 451 451 1 7504 7504 7504 56310016
6533	7306143 21 151543 151543 451 451 1 7504 7504 7504 56310016
6534	7306164 18 151543 151543 451 451 1 0 0 0 0
6535	7306182 18 151544 151544 451 451 1 0 0 0 0
6536	7306200 21 151544 151544 451 451 1 7504 7504 7504 56310016
6537	7306221 21 151544 151544 451 451 1 7504 7504 7504 56310016
6538	7306242 18 151544 151544 451 451 1 0 0 0 0
6539	7306260 18 151545 151545 451 451 1 0 0 0 0
6540	7306278 21 151545 151545 451 451 1 7504 7504 7504 56310016
6541	7306299 21 151545 151545 451 451 1 7504 7504 7504 56310016
6542	7306320 18 151545 151545 451 451 1 0 0 0 0
6543	7306338 18 151546 151546 451 451 1 0 0 0 0
6544	7306356 21 151546 151546 451 451 1 7504 7504 7504 56310016
6545	7306377 21 151546 151546 451 451 1 7504 7504 7504 56310016
6546	7306398 18 151546 151546 451 451 1 0 0 0 0
6547	7306416 18 151547 151547 451 451 1 0 0 0 0
6548	7306434 21 151547 151547 451 451 1 7504 7504 7504 56310016
6549	7306455 21 151547 151547 451 451 1 7504 7504 7504 56310016
6550	7306476 18 151547 151547 451 451 1 0 0 0 0
6551	7306494 18 151548 151548 451 451 1 0 0 0 0
6552	7306512 21 151548 151548 451 451 1 7504 7504 7504 56310016
6553	7306533 21 151548 151548 451 451 1 7504 7504 7504 56310016
6554	7306554 18 151548 151548 451 451 1 0 0 0 0
6555	7306572 18 151549 151549 451 451 1 0 0 0 0
6556	7306590 21 151549 151549 451 451 1 7504 7504 7504 56310016
6557	7306611 21 151549 151549 451 451 1 7504 7504 7504 56310016
6558	7306632 18 151549 151549 451 451 1 0 0 0 0
6559	7306650 18 151550 151550 451 451 1 0 0 0 0
6560	7306668 21 151550 151550 451 451 1 7504 7504 7504 56310016
6561	7306689 21 151550 151550 451 451 1 7504 7504 7504 56310016
6562	7306710 18 151550 151550 451 451 1 0 0 0 0
6563	7306728 18 151551 151551 451 451 1 0 0 0 0
6564	7306746 21 151551 151551 451 451 1 7504 7504 7504 56310016
6565	7306767 21 151551 151551 451 451 1 7504 7504 7504 56310016
6566	7306788 18 151551 151551 451 451 1 0 0 0 0
6567	7306806 18 151552 151552 451 451 1 0 0 0 0
6568	7306824 21 151552 151552 451 451 1 7504 7504 7504 56310016
6569	7306845 21 151552 151552 451 451 1 7504 7504 7504 56310016
6570	7306866 18 151552 151552 451 451 1 0 0 0 0

