version 2
run General-0-20220507-15:47:45-86321
attr configname General
attr datetime 20220507-15:47:45
attr experiment General
attr inifile TcpSynAttack.ini
attr iterationvars ""
attr iterationvarsf ""
attr measurement ""
attr network TcpSynAttack
attr processid 86321
attr repetition 0
attr replication #0
attr resultdir results
attr runnumber 0
attr seedset 0
param *.numSubnet*Attackers 2
param *.总线[0].positions "\"40\""
param *.总线[1].positions "\"33\""
param *.被控主机[*].numApps 1
param *.被控主机[*].tcp.typename "\"DSAK_Tcp\""
param *.被控主机[*].app[0].typename "\"DSAK_TcpSynAttackApp\""
param *.被控主机[*].app[0].connectAddress "\"服务器\""
param *.被控主机[*].app[0].connectPort 1000
param *.服务器.numApps 1
param *.服务器.app[0].typename "\"TcpGenericServerApp\""
param *.服务器.app[0].localPort 1000

scalar TcpSynAttack.交换机[0].relayUnit "number of received BPDUs from STP module" 0
scalar TcpSynAttack.交换机[0].relayUnit "number of received frames from network (including BPDUs)" 1780
scalar TcpSynAttack.交换机[0].relayUnit "number of dropped frames (including BPDUs)" 0
scalar TcpSynAttack.交换机[0].relayUnit "number of delivered BPDUs to the STP module" 0
scalar TcpSynAttack.交换机[0].relayUnit "number of dispatched BPDU frames to the network" 0
scalar TcpSynAttack.交换机[0].relayUnit "number of dispatched non-BDPU frames to the network" 1788
scalar TcpSynAttack.交换机[0].eth[0].mac.queue packetPopped:count 638
attr interpolationmode none
attr title "packet popped, count"
scalar TcpSynAttack.交换机[0].eth[0].mac.queue packetPopped:sum(packetBytes) 40832
attr interpolationmode none
attr title "packet popped, sum(packetBytes)"
statistic TcpSynAttack.交换机[0].eth[0].mac.queue queueingTime:histogram
field count 638
field mean 0.007058407523511
field stddev 0.0060443413902189
field min 0
field max 0.021408
field sum 4.503264
field sqrsum 0.055058070528
attr interpolationmode none
attr source queueingTime(packetPopped)
attr title "queueing times, histogram"
attr unit s
bin	-inf	0
bin	0	38
bin	0.0004	57
bin	0.0008	0
bin	0.0012	45
bin	0.0016	40
bin	0.002	0
bin	0.0024	35
bin	0.0028	0
bin	0.0032	30
bin	0.0036	30
bin	0.004	0
bin	0.0044	30
bin	0.0048	0
bin	0.0052	24
bin	0.0056	20
bin	0.006	0
bin	0.0064	20
bin	0.0068	0
bin	0.0072	20
bin	0.0076	20
bin	0.008	0
bin	0.0084	20
bin	0.0088	0
bin	0.0092	20
bin	0.0096	20
bin	0.01	0
bin	0.0104	15
bin	0.0108	0
bin	0.0112	10
bin	0.0116	0
bin	0.012	10
bin	0.0124	10
bin	0.0128	0
bin	0.0132	10
bin	0.0136	0
bin	0.014	10
bin	0.0144	10
bin	0.0148	0
bin	0.0152	10
bin	0.0156	0
bin	0.016	10
bin	0.0164	10
bin	0.0168	0
bin	0.0172	10
bin	0.0176	0
bin	0.018	10
bin	0.0184	10
bin	0.0188	0
bin	0.0192	10
bin	0.0196	0
bin	0.02	10
bin	0.0204	10
bin	0.0208	0
bin	0.0212	4
bin	0.0216	0
scalar TcpSynAttack.交换机[0].eth[0].mac.queue queueLength:max 32
attr interpolationmode sample-hold
attr source "count(packetPushed) - count(packetPopped) - count(packetRemoved) - count(packetDropped)"
attr title "queue length, max"
scalar TcpSynAttack.交换机[0].eth[0].mac.queue queueLength:timeavg 0.010007266144858
attr interpolationmode sample-hold
attr source "count(packetPushed) - count(packetPopped) - count(packetRemoved) - count(packetDropped)"
attr title "queue length, timeavg"
scalar TcpSynAttack.交换机[0].eth[0].mac.queue packetPushed:count 638
attr interpolationmode none
attr title "packet pushed, count"
scalar TcpSynAttack.交换机[0].eth[0].mac.queue packetPushed:sum(packetBytes) 40832
attr interpolationmode none
attr title "packet pushed, sum(packetBytes)"
scalar TcpSynAttack.交换机[0].eth[0].mac.queue packetDropQueueOverflow:count 0
attr interpolationmode none
attr source packetDropReasonIsQueueOverflow(packetDropped)
attr title "packet drops: queue overflow, count"
scalar TcpSynAttack.交换机[0].eth[0].mac.queue packetDropQueueOverflow:sum(packetBytes) 0
attr interpolationmode none
attr source packetDropReasonIsQueueOverflow(packetDropped)
attr title "packet drops: queue overflow, sum(packetBytes)"
scalar TcpSynAttack.交换机[0].eth[0].mac.queue packetRemoved:count 0
attr interpolationmode none
attr title "packets removed, count"
scalar TcpSynAttack.交换机[0].eth[0].mac.queue packetRemoved:sum(packetBytes) 0
attr interpolationmode none
attr title "packets removed, sum(packetBytes)"
scalar TcpSynAttack.交换机[0].eth[0].mac "simulated time" 451
scalar TcpSynAttack.交换机[0].eth[0].mac full-duplex 1
scalar TcpSynAttack.交换机[0].eth[0].mac "frames/sec sent" 1.4146341463415
scalar TcpSynAttack.交换机[0].eth[0].mac "frames/sec rcvd" 2.5321507760532
scalar TcpSynAttack.交换机[0].eth[0].mac "bits/sec sent" 724.29268292683
scalar TcpSynAttack.交换机[0].eth[0].mac "bits/sec rcvd" 1296.4611973392
scalar TcpSynAttack.交换机[0].eth[0].mac "rx channel idle (%)" 99.854148115299
scalar TcpSynAttack.交换机[0].eth[0].mac "rx channel utilization (%)" 0.14585188470067
scalar TcpSynAttack.交换机[0].eth[0].mac "rx channel collision (%)" 0
scalar TcpSynAttack.交换机[0].eth[0].mac collisions 0
scalar TcpSynAttack.交换机[0].eth[0].mac backoffs 0
scalar TcpSynAttack.交换机[0].eth[0].mac rxPausePkUnits:count 0
attr interpolationmode none
attr title "pause units received, count"
scalar TcpSynAttack.交换机[0].eth[0].mac rxPausePkUnits:sum 0
attr interpolationmode none
attr title "pause units received, sum"
scalar TcpSynAttack.交换机[0].eth[0].mac txPausePkUnits:count 0
attr interpolationmode none
attr title "pause units sent, count"
scalar TcpSynAttack.交换机[0].eth[0].mac txPausePkUnits:sum 0
attr interpolationmode none
attr title "pause units sent, sum"
scalar TcpSynAttack.交换机[0].eth[0].mac rxPkOk:count 1142
attr interpolationmode none
attr source rxPkOk
attr title "packets received OK, count"
scalar TcpSynAttack.交换机[0].eth[0].mac rxPkOk:sum(packetBytes) 73088
attr interpolationmode none
attr source rxPkOk
attr title "packets received OK, sum(packetBytes)"
scalar TcpSynAttack.交换机[0].eth[0].mac backoffSlotsGenerated:count 0
attr interpolationmode none
attr title "backoff, count"
scalar TcpSynAttack.交换机[0].eth[0].mac collision:count 0
attr interpolationmode none
attr title "collision, count"
scalar TcpSynAttack.交换机[0].eth[0].mac txPk:count 638
attr interpolationmode none
attr source packetSentToLower
attr title "packets transmitted, count"
scalar TcpSynAttack.交换机[0].eth[0].mac txPk:sum(packetBytes) 40832
attr interpolationmode none
attr source packetSentToLower
attr title "packets transmitted, sum(packetBytes)"
scalar TcpSynAttack.交换机[0].eth[0].mac packetReceivedFromUpper:count 638
attr interpolationmode none
attr source packetReceivedFromUpper
attr title "packet bytes from higher layer, count"
scalar TcpSynAttack.交换机[0].eth[0].mac packetReceivedFromUpper:sum(packetBytes) 40832
attr interpolationmode none
attr source packetReceivedFromUpper
attr title "packet bytes from higher layer, sum(packetBytes)"
scalar TcpSynAttack.交换机[0].eth[0].mac passedUpPk:count 1142
attr interpolationmode none
attr source packetSentToUpper
attr title "packets passed to higher layer, count"
scalar TcpSynAttack.交换机[0].eth[0].mac passedUpPk:sum(packetBytes) 73088
attr interpolationmode none
attr source packetSentToUpper
attr title "packets passed to higher layer, sum(packetBytes)"
scalar TcpSynAttack.交换机[0].eth[0].mac packetDropIncorrectlyReceived:count 0
attr interpolationmode none
attr source packetDropReasonIsIncorrectlyReceived(packetDropped)
attr title "packet drop: incorrectly received, count"
scalar TcpSynAttack.交换机[0].eth[0].mac packetDropIncorrectlyReceived:sum(packetBytes) 0
attr interpolationmode none
attr source packetDropReasonIsIncorrectlyReceived(packetDropped)
attr title "packet drop: incorrectly received, sum(packetBytes)"
scalar TcpSynAttack.交换机[0].eth[0].mac packetDropInterfaceDown:count 0
attr interpolationmode none
attr source packetDropReasonIsInterfaceDown(packetDropped)
attr title "packet drop: interface down, count"
scalar TcpSynAttack.交换机[0].eth[0].mac packetDropInterfaceDown:sum(packetBytes) 0
attr interpolationmode none
attr source packetDropReasonIsInterfaceDown(packetDropped)
attr title "packet drop: interface down, sum(packetBytes)"
scalar TcpSynAttack.交换机[0].eth[0].mac packetDropNotAddressedToUs:count 0
attr interpolationmode none
attr source packetDropReasonIsNotAddressedToUs(packetDropped)
attr title "packet drop: not addressed to us, count"
scalar TcpSynAttack.交换机[0].eth[0].mac packetDropNotAddressedToUs:sum(packetBytes) 0
attr interpolationmode none
attr source packetDropReasonIsNotAddressedToUs(packetDropped)
attr title "packet drop: not addressed to us, sum(packetBytes)"
scalar TcpSynAttack.交换机[0].eth[1].mac.queue packetPopped:count 575
attr interpolationmode none
attr title "packet popped, count"
scalar TcpSynAttack.交换机[0].eth[1].mac.queue packetPopped:sum(packetBytes) 36800
attr interpolationmode none
attr title "packet popped, sum(packetBytes)"
statistic TcpSynAttack.交换机[0].eth[1].mac.queue queueingTime:histogram
field count 575
field mean 0
field stddev 0
field min 0
field max 0
field sum 0
field sqrsum 0
attr interpolationmode none
attr source queueingTime(packetPopped)
attr title "queueing times, histogram"
attr unit s
bin	-inf	0
bin	-0.5	0
bin	-0.48	0
bin	-0.46	0
bin	-0.44	0
bin	-0.42	0
bin	-0.4	0
bin	-0.38	0
bin	-0.36	0
bin	-0.34	0
bin	-0.32	0
bin	-0.3	0
bin	-0.28	0
bin	-0.26	0
bin	-0.24	0
bin	-0.22	0
bin	-0.2	0
bin	-0.18	0
bin	-0.16	0
bin	-0.14	0
bin	-0.12	0
bin	-0.1	0
bin	-0.08	0
bin	-0.06	0
bin	-0.04	0
bin	-0.02	0
bin	0	575
bin	0.02	0
bin	0.04	0
bin	0.06	0
bin	0.08	0
bin	0.1	0
bin	0.12	0
bin	0.14	0
bin	0.16	0
bin	0.18	0
bin	0.2	0
bin	0.22	0
bin	0.24	0
bin	0.26	0
bin	0.28	0
bin	0.3	0
bin	0.32	0
bin	0.34	0
bin	0.36	0
bin	0.38	0
bin	0.4	0
bin	0.42	0
bin	0.44	0
bin	0.46	0
bin	0.48	0
bin	0.5	0
scalar TcpSynAttack.交换机[0].eth[1].mac.queue queueLength:max 1
attr interpolationmode sample-hold
attr source "count(packetPushed) - count(packetPopped) - count(packetRemoved) - count(packetDropped)"
attr title "queue length, max"
scalar TcpSynAttack.交换机[0].eth[1].mac.queue queueLength:timeavg 0
attr interpolationmode sample-hold
attr source "count(packetPushed) - count(packetPopped) - count(packetRemoved) - count(packetDropped)"
attr title "queue length, timeavg"
scalar TcpSynAttack.交换机[0].eth[1].mac.queue packetPushed:count 575
attr interpolationmode none
attr title "packet pushed, count"
scalar TcpSynAttack.交换机[0].eth[1].mac.queue packetPushed:sum(packetBytes) 36800
attr interpolationmode none
attr title "packet pushed, sum(packetBytes)"
scalar TcpSynAttack.交换机[0].eth[1].mac.queue packetDropQueueOverflow:count 0
attr interpolationmode none
attr source packetDropReasonIsQueueOverflow(packetDropped)
attr title "packet drops: queue overflow, count"
scalar TcpSynAttack.交换机[0].eth[1].mac.queue packetDropQueueOverflow:sum(packetBytes) 0
attr interpolationmode none
attr source packetDropReasonIsQueueOverflow(packetDropped)
attr title "packet drops: queue overflow, sum(packetBytes)"
scalar TcpSynAttack.交换机[0].eth[1].mac.queue packetRemoved:count 0
attr interpolationmode none
attr title "packets removed, count"
scalar TcpSynAttack.交换机[0].eth[1].mac.queue packetRemoved:sum(packetBytes) 0
attr interpolationmode none
attr title "packets removed, sum(packetBytes)"
scalar TcpSynAttack.交换机[0].eth[1].mac "simulated time" 451
scalar TcpSynAttack.交换机[0].eth[1].mac full-duplex 1
scalar TcpSynAttack.交换机[0].eth[1].mac "frames/sec sent" 1.2749445676275
scalar TcpSynAttack.交换机[0].eth[1].mac "frames/sec rcvd" 0.70731707317073
scalar TcpSynAttack.交换机[0].eth[1].mac "bits/sec sent" 652.77161862528
scalar TcpSynAttack.交换机[0].eth[1].mac "bits/sec rcvd" 362.14634146341
scalar TcpSynAttack.交换机[0].eth[1].mac "rx channel idle (%)" 99.959258536585
scalar TcpSynAttack.交换机[0].eth[1].mac "rx channel utilization (%)" 0.040741463414634
scalar TcpSynAttack.交换机[0].eth[1].mac "rx channel collision (%)" 0
scalar TcpSynAttack.交换机[0].eth[1].mac collisions 0
scalar TcpSynAttack.交换机[0].eth[1].mac backoffs 0
scalar TcpSynAttack.交换机[0].eth[1].mac rxPausePkUnits:count 0
attr interpolationmode none
attr title "pause units received, count"
scalar TcpSynAttack.交换机[0].eth[1].mac rxPausePkUnits:sum 0
attr interpolationmode none
attr title "pause units received, sum"
scalar TcpSynAttack.交换机[0].eth[1].mac txPausePkUnits:count 0
attr interpolationmode none
attr title "pause units sent, count"
scalar TcpSynAttack.交换机[0].eth[1].mac txPausePkUnits:sum 0
attr interpolationmode none
attr title "pause units sent, sum"
scalar TcpSynAttack.交换机[0].eth[1].mac rxPkOk:count 319
attr interpolationmode none
attr source rxPkOk
attr title "packets received OK, count"
scalar TcpSynAttack.交换机[0].eth[1].mac rxPkOk:sum(packetBytes) 20416
attr interpolationmode none
attr source rxPkOk
attr title "packets received OK, sum(packetBytes)"
scalar TcpSynAttack.交换机[0].eth[1].mac backoffSlotsGenerated:count 0
attr interpolationmode none
attr title "backoff, count"
scalar TcpSynAttack.交换机[0].eth[1].mac collision:count 0
attr interpolationmode none
attr title "collision, count"
scalar TcpSynAttack.交换机[0].eth[1].mac txPk:count 575
attr interpolationmode none
attr source packetSentToLower
attr title "packets transmitted, count"
scalar TcpSynAttack.交换机[0].eth[1].mac txPk:sum(packetBytes) 36800
attr interpolationmode none
attr source packetSentToLower
attr title "packets transmitted, sum(packetBytes)"
scalar TcpSynAttack.交换机[0].eth[1].mac packetReceivedFromUpper:count 575
attr interpolationmode none
attr source packetReceivedFromUpper
attr title "packet bytes from higher layer, count"
scalar TcpSynAttack.交换机[0].eth[1].mac packetReceivedFromUpper:sum(packetBytes) 36800
attr interpolationmode none
attr source packetReceivedFromUpper
attr title "packet bytes from higher layer, sum(packetBytes)"
scalar TcpSynAttack.交换机[0].eth[1].mac passedUpPk:count 319
attr interpolationmode none
attr source packetSentToUpper
attr title "packets passed to higher layer, count"
scalar TcpSynAttack.交换机[0].eth[1].mac passedUpPk:sum(packetBytes) 20416
attr interpolationmode none
attr source packetSentToUpper
attr title "packets passed to higher layer, sum(packetBytes)"
scalar TcpSynAttack.交换机[0].eth[1].mac packetDropIncorrectlyReceived:count 0
attr interpolationmode none
attr source packetDropReasonIsIncorrectlyReceived(packetDropped)
attr title "packet drop: incorrectly received, count"
scalar TcpSynAttack.交换机[0].eth[1].mac packetDropIncorrectlyReceived:sum(packetBytes) 0
attr interpolationmode none
attr source packetDropReasonIsIncorrectlyReceived(packetDropped)
attr title "packet drop: incorrectly received, sum(packetBytes)"
scalar TcpSynAttack.交换机[0].eth[1].mac packetDropInterfaceDown:count 0
attr interpolationmode none
attr source packetDropReasonIsInterfaceDown(packetDropped)
attr title "packet drop: interface down, count"
scalar TcpSynAttack.交换机[0].eth[1].mac packetDropInterfaceDown:sum(packetBytes) 0
attr interpolationmode none
attr source packetDropReasonIsInterfaceDown(packetDropped)
attr title "packet drop: interface down, sum(packetBytes)"
scalar TcpSynAttack.交换机[0].eth[1].mac packetDropNotAddressedToUs:count 0
attr interpolationmode none
attr source packetDropReasonIsNotAddressedToUs(packetDropped)
attr title "packet drop: not addressed to us, count"
scalar TcpSynAttack.交换机[0].eth[1].mac packetDropNotAddressedToUs:sum(packetBytes) 0
attr interpolationmode none
attr source packetDropReasonIsNotAddressedToUs(packetDropped)
attr title "packet drop: not addressed to us, sum(packetBytes)"
scalar TcpSynAttack.交换机[0].eth[2].mac.queue packetPopped:count 575
attr interpolationmode none
attr title "packet popped, count"
scalar TcpSynAttack.交换机[0].eth[2].mac.queue packetPopped:sum(packetBytes) 36800
attr interpolationmode none
attr title "packet popped, sum(packetBytes)"
statistic TcpSynAttack.交换机[0].eth[2].mac.queue queueingTime:histogram
field count 575
field mean 0
field stddev 0
field min 0
field max 0
field sum 0
field sqrsum 0
attr interpolationmode none
attr source queueingTime(packetPopped)
attr title "queueing times, histogram"
attr unit s
bin	-inf	0
bin	-0.5	0
bin	-0.48	0
bin	-0.46	0
bin	-0.44	0
bin	-0.42	0
bin	-0.4	0
bin	-0.38	0
bin	-0.36	0
bin	-0.34	0
bin	-0.32	0
bin	-0.3	0
bin	-0.28	0
bin	-0.26	0
bin	-0.24	0
bin	-0.22	0
bin	-0.2	0
bin	-0.18	0
bin	-0.16	0
bin	-0.14	0
bin	-0.12	0
bin	-0.1	0
bin	-0.08	0
bin	-0.06	0
bin	-0.04	0
bin	-0.02	0
bin	0	575
bin	0.02	0
bin	0.04	0
bin	0.06	0
bin	0.08	0
bin	0.1	0
bin	0.12	0
bin	0.14	0
bin	0.16	0
bin	0.18	0
bin	0.2	0
bin	0.22	0
bin	0.24	0
bin	0.26	0
bin	0.28	0
bin	0.3	0
bin	0.32	0
bin	0.34	0
bin	0.36	0
bin	0.38	0
bin	0.4	0
bin	0.42	0
bin	0.44	0
bin	0.46	0
bin	0.48	0
bin	0.5	0
scalar TcpSynAttack.交换机[0].eth[2].mac.queue queueLength:max 1
attr interpolationmode sample-hold
attr source "count(packetPushed) - count(packetPopped) - count(packetRemoved) - count(packetDropped)"
attr title "queue length, max"
scalar TcpSynAttack.交换机[0].eth[2].mac.queue queueLength:timeavg 0
attr interpolationmode sample-hold
attr source "count(packetPushed) - count(packetPopped) - count(packetRemoved) - count(packetDropped)"
attr title "queue length, timeavg"
scalar TcpSynAttack.交换机[0].eth[2].mac.queue packetPushed:count 575
attr interpolationmode none
attr title "packet pushed, count"
scalar TcpSynAttack.交换机[0].eth[2].mac.queue packetPushed:sum(packetBytes) 36800
attr interpolationmode none
attr title "packet pushed, sum(packetBytes)"
scalar TcpSynAttack.交换机[0].eth[2].mac.queue packetDropQueueOverflow:count 0
attr interpolationmode none
attr source packetDropReasonIsQueueOverflow(packetDropped)
attr title "packet drops: queue overflow, count"
scalar TcpSynAttack.交换机[0].eth[2].mac.queue packetDropQueueOverflow:sum(packetBytes) 0
attr interpolationmode none
attr source packetDropReasonIsQueueOverflow(packetDropped)
attr title "packet drops: queue overflow, sum(packetBytes)"
scalar TcpSynAttack.交换机[0].eth[2].mac.queue packetRemoved:count 0
attr interpolationmode none
attr title "packets removed, count"
scalar TcpSynAttack.交换机[0].eth[2].mac.queue packetRemoved:sum(packetBytes) 0
attr interpolationmode none
attr title "packets removed, sum(packetBytes)"
scalar TcpSynAttack.交换机[0].eth[2].mac "simulated time" 451
scalar TcpSynAttack.交换机[0].eth[2].mac full-duplex 1
scalar TcpSynAttack.交换机[0].eth[2].mac "frames/sec sent" 1.2749445676275
scalar TcpSynAttack.交换机[0].eth[2].mac "frames/sec rcvd" 0.70731707317073
scalar TcpSynAttack.交换机[0].eth[2].mac "bits/sec sent" 652.77161862528
scalar TcpSynAttack.交换机[0].eth[2].mac "bits/sec rcvd" 362.14634146341
scalar TcpSynAttack.交换机[0].eth[2].mac "rx channel idle (%)" 99.959258536585
scalar TcpSynAttack.交换机[0].eth[2].mac "rx channel utilization (%)" 0.040741463414634
scalar TcpSynAttack.交换机[0].eth[2].mac "rx channel collision (%)" 0
scalar TcpSynAttack.交换机[0].eth[2].mac collisions 0
scalar TcpSynAttack.交换机[0].eth[2].mac backoffs 0
scalar TcpSynAttack.交换机[0].eth[2].mac rxPausePkUnits:count 0
attr interpolationmode none
attr title "pause units received, count"
scalar TcpSynAttack.交换机[0].eth[2].mac rxPausePkUnits:sum 0
attr interpolationmode none
attr title "pause units received, sum"
scalar TcpSynAttack.交换机[0].eth[2].mac txPausePkUnits:count 0
attr interpolationmode none
attr title "pause units sent, count"
scalar TcpSynAttack.交换机[0].eth[2].mac txPausePkUnits:sum 0
attr interpolationmode none
attr title "pause units sent, sum"
scalar TcpSynAttack.交换机[0].eth[2].mac rxPkOk:count 319
attr interpolationmode none
attr source rxPkOk
attr title "packets received OK, count"
scalar TcpSynAttack.交换机[0].eth[2].mac rxPkOk:sum(packetBytes) 20416
attr interpolationmode none
attr source rxPkOk
attr title "packets received OK, sum(packetBytes)"
scalar TcpSynAttack.交换机[0].eth[2].mac backoffSlotsGenerated:count 0
attr interpolationmode none
attr title "backoff, count"
scalar TcpSynAttack.交换机[0].eth[2].mac collision:count 0
attr interpolationmode none
attr title "collision, count"
scalar TcpSynAttack.交换机[0].eth[2].mac txPk:count 575
attr interpolationmode none
attr source packetSentToLower
attr title "packets transmitted, count"
scalar TcpSynAttack.交换机[0].eth[2].mac txPk:sum(packetBytes) 36800
attr interpolationmode none
attr source packetSentToLower
attr title "packets transmitted, sum(packetBytes)"
scalar TcpSynAttack.交换机[0].eth[2].mac packetReceivedFromUpper:count 575
attr interpolationmode none
attr source packetReceivedFromUpper
attr title "packet bytes from higher layer, count"
scalar TcpSynAttack.交换机[0].eth[2].mac packetReceivedFromUpper:sum(packetBytes) 36800
attr interpolationmode none
attr source packetReceivedFromUpper
attr title "packet bytes from higher layer, sum(packetBytes)"
scalar TcpSynAttack.交换机[0].eth[2].mac passedUpPk:count 319
attr interpolationmode none
attr source packetSentToUpper
attr title "packets passed to higher layer, count"
scalar TcpSynAttack.交换机[0].eth[2].mac passedUpPk:sum(packetBytes) 20416
attr interpolationmode none
attr source packetSentToUpper
attr title "packets passed to higher layer, sum(packetBytes)"
scalar TcpSynAttack.交换机[0].eth[2].mac packetDropIncorrectlyReceived:count 0
attr interpolationmode none
attr source packetDropReasonIsIncorrectlyReceived(packetDropped)
attr title "packet drop: incorrectly received, count"
scalar TcpSynAttack.交换机[0].eth[2].mac packetDropIncorrectlyReceived:sum(packetBytes) 0
attr interpolationmode none
attr source packetDropReasonIsIncorrectlyReceived(packetDropped)
attr title "packet drop: incorrectly received, sum(packetBytes)"
scalar TcpSynAttack.交换机[0].eth[2].mac packetDropInterfaceDown:count 0
attr interpolationmode none
attr source packetDropReasonIsInterfaceDown(packetDropped)
attr title "packet drop: interface down, count"
scalar TcpSynAttack.交换机[0].eth[2].mac packetDropInterfaceDown:sum(packetBytes) 0
attr interpolationmode none
attr source packetDropReasonIsInterfaceDown(packetDropped)
attr title "packet drop: interface down, sum(packetBytes)"
scalar TcpSynAttack.交换机[0].eth[2].mac packetDropNotAddressedToUs:count 0
attr interpolationmode none
attr source packetDropReasonIsNotAddressedToUs(packetDropped)
attr title "packet drop: not addressed to us, count"
scalar TcpSynAttack.交换机[0].eth[2].mac packetDropNotAddressedToUs:sum(packetBytes) 0
attr interpolationmode none
attr source packetDropReasonIsNotAddressedToUs(packetDropped)
attr title "packet drop: not addressed to us, sum(packetBytes)"
scalar TcpSynAttack.交换机[0].encap pauseSent:count 0
attr title "pause sent, count"
scalar TcpSynAttack.交换机[0].encap pauseSent:sum 0
attr title "pause sent, sum"
scalar TcpSynAttack.交换机[0].encap decapPk:count 0
attr interpolationmode none
attr source decapPk
attr title "packets decapsulated, count"
scalar TcpSynAttack.交换机[0].encap decapPk:sum(packetBytes) 0
attr interpolationmode none
attr source decapPk
attr title "packets decapsulated, sum(packetBytes)"
scalar TcpSynAttack.交换机[0].encap encapPk:count 0
attr interpolationmode none
attr source encapPk
attr title "packets encapsulated, count"
scalar TcpSynAttack.交换机[0].encap encapPk:sum(packetBytes) 0
attr interpolationmode none
attr source encapPk
attr title "packets encapsulated, sum(packetBytes)"
scalar TcpSynAttack.交换机[1].relayUnit "number of received BPDUs from STP module" 0
scalar TcpSynAttack.交换机[1].relayUnit "number of received frames from network (including BPDUs)" 5320
scalar TcpSynAttack.交换机[1].relayUnit "number of dropped frames (including BPDUs)" 0
scalar TcpSynAttack.交换机[1].relayUnit "number of delivered BPDUs to the STP module" 0
scalar TcpSynAttack.交换机[1].relayUnit "number of dispatched BPDU frames to the network" 0
scalar TcpSynAttack.交换机[1].relayUnit "number of dispatched non-BDPU frames to the network" 5348
scalar TcpSynAttack.交换机[1].eth[0].mac.queue packetPopped:count 2282
attr interpolationmode none
attr title "packet popped, count"
scalar TcpSynAttack.交换机[1].eth[0].mac.queue packetPopped:sum(packetBytes) 146048
attr interpolationmode none
attr title "packet popped, sum(packetBytes)"
statistic TcpSynAttack.交换机[1].eth[0].mac.queue queueingTime:histogram
field count 2282
field mean 7.9921121822962e-07
field stddev 2.096999002437e-05
field min 0
field max 0.000576
field sum 0.0018238
field sqrsum 1.00450564e-06
attr interpolationmode none
attr source queueingTime(packetPopped)
attr title "queueing times, histogram"
attr unit s
bin	-inf	0
bin	0	2278
bin	1e-05	0
bin	2e-05	0
bin	3e-05	0
bin	4e-05	0
bin	5e-05	0
bin	6e-05	0
bin	7e-05	0
bin	8e-05	0
bin	9e-05	1
bin	0.0001	0
bin	0.00011	0
bin	0.00012	0
bin	0.00013	0
bin	0.00014	0
bin	0.00015	0
bin	0.00016	0
bin	0.00017	0
bin	0.00018	0
bin	0.00019	0
bin	0.0002	0
bin	0.00021	0
bin	0.00022	0
bin	0.00023	0
bin	0.00024	0
bin	0.00025	0
bin	0.00026	0
bin	0.00027	0
bin	0.00028	0
bin	0.00029	0
bin	0.0003	0
bin	0.00031	0
bin	0.00032	0
bin	0.00033	0
bin	0.00034	0
bin	0.00035	0
bin	0.00036	0
bin	0.00037	0
bin	0.00038	0
bin	0.00039	0
bin	0.0004	0
bin	0.00041	0
bin	0.00042	0
bin	0.00043	0
bin	0.00044	0
bin	0.00045	0
bin	0.00046	0
bin	0.00047	0
bin	0.00048	0
bin	0.00049	0
bin	0.0005	0
bin	0.00051	0
bin	0.00052	0
bin	0.00053	0
bin	0.00054	0
bin	0.00055	0
bin	0.00056	0
bin	0.00057	3
bin	0.00058	0
bin	0.00059	0
bin	0.0006	0
bin	0.00061	0
bin	0.00062	0
bin	0.00063	0
bin	0.00064	0
bin	0.00065	0
bin	0.00066	0
bin	0.00067	0
bin	0.00068	0
bin	0.00069	0
bin	0.0007	0
bin	0.00071	0
bin	0.00072	0
scalar TcpSynAttack.交换机[1].eth[0].mac.queue queueLength:max 1
attr interpolationmode sample-hold
attr source "count(packetPushed) - count(packetPopped) - count(packetRemoved) - count(packetDropped)"
attr title "queue length, max"
scalar TcpSynAttack.交换机[1].eth[0].mac.queue queueLength:timeavg 4.052894077494e-06
attr interpolationmode sample-hold
attr source "count(packetPushed) - count(packetPopped) - count(packetRemoved) - count(packetDropped)"
attr title "queue length, timeavg"
scalar TcpSynAttack.交换机[1].eth[0].mac.queue packetPushed:count 2282
attr interpolationmode none
attr title "packet pushed, count"
scalar TcpSynAttack.交换机[1].eth[0].mac.queue packetPushed:sum(packetBytes) 146048
attr interpolationmode none
attr title "packet pushed, sum(packetBytes)"
scalar TcpSynAttack.交换机[1].eth[0].mac.queue packetDropQueueOverflow:count 0
attr interpolationmode none
attr source packetDropReasonIsQueueOverflow(packetDropped)
attr title "packet drops: queue overflow, count"
scalar TcpSynAttack.交换机[1].eth[0].mac.queue packetDropQueueOverflow:sum(packetBytes) 0
attr interpolationmode none
attr source packetDropReasonIsQueueOverflow(packetDropped)
attr title "packet drops: queue overflow, sum(packetBytes)"
scalar TcpSynAttack.交换机[1].eth[0].mac.queue packetRemoved:count 0
attr interpolationmode none
attr title "packets removed, count"
scalar TcpSynAttack.交换机[1].eth[0].mac.queue packetRemoved:sum(packetBytes) 0
attr interpolationmode none
attr title "packets removed, sum(packetBytes)"
scalar TcpSynAttack.交换机[1].eth[0].mac "simulated time" 451
scalar TcpSynAttack.交换机[1].eth[0].mac full-duplex 1
scalar TcpSynAttack.交换机[1].eth[0].mac "frames/sec sent" 5.059866962306
scalar TcpSynAttack.交换机[1].eth[0].mac "frames/sec rcvd" 2.8026607538803
scalar TcpSynAttack.交换机[1].eth[0].mac "bits/sec sent" 2590.6518847007
scalar TcpSynAttack.交换机[1].eth[0].mac "bits/sec rcvd" 1434.9623059867
scalar TcpSynAttack.交换机[1].eth[0].mac "rx channel idle (%)" 99.838566740576
scalar TcpSynAttack.交换机[1].eth[0].mac "rx channel utilization (%)" 0.1614332594235
scalar TcpSynAttack.交换机[1].eth[0].mac "rx channel collision (%)" 0
scalar TcpSynAttack.交换机[1].eth[0].mac collisions 0
scalar TcpSynAttack.交换机[1].eth[0].mac backoffs 0
scalar TcpSynAttack.交换机[1].eth[0].mac rxPausePkUnits:count 0
attr interpolationmode none
attr title "pause units received, count"
scalar TcpSynAttack.交换机[1].eth[0].mac rxPausePkUnits:sum 0
attr interpolationmode none
attr title "pause units received, sum"
scalar TcpSynAttack.交换机[1].eth[0].mac txPausePkUnits:count 0
attr interpolationmode none
attr title "pause units sent, count"
scalar TcpSynAttack.交换机[1].eth[0].mac txPausePkUnits:sum 0
attr interpolationmode none
attr title "pause units sent, sum"
scalar TcpSynAttack.交换机[1].eth[0].mac rxPkOk:count 1264
attr interpolationmode none
attr source rxPkOk
attr title "packets received OK, count"
scalar TcpSynAttack.交换机[1].eth[0].mac rxPkOk:sum(packetBytes) 80896
attr interpolationmode none
attr source rxPkOk
attr title "packets received OK, sum(packetBytes)"
scalar TcpSynAttack.交换机[1].eth[0].mac backoffSlotsGenerated:count 0
attr interpolationmode none
attr title "backoff, count"
scalar TcpSynAttack.交换机[1].eth[0].mac collision:count 0
attr interpolationmode none
attr title "collision, count"
scalar TcpSynAttack.交换机[1].eth[0].mac txPk:count 2282
attr interpolationmode none
attr source packetSentToLower
attr title "packets transmitted, count"
scalar TcpSynAttack.交换机[1].eth[0].mac txPk:sum(packetBytes) 146048
attr interpolationmode none
attr source packetSentToLower
attr title "packets transmitted, sum(packetBytes)"
scalar TcpSynAttack.交换机[1].eth[0].mac packetReceivedFromUpper:count 2282
attr interpolationmode none
attr source packetReceivedFromUpper
attr title "packet bytes from higher layer, count"
scalar TcpSynAttack.交换机[1].eth[0].mac packetReceivedFromUpper:sum(packetBytes) 146048
attr interpolationmode none
attr source packetReceivedFromUpper
attr title "packet bytes from higher layer, sum(packetBytes)"
scalar TcpSynAttack.交换机[1].eth[0].mac passedUpPk:count 1264
attr interpolationmode none
attr source packetSentToUpper
attr title "packets passed to higher layer, count"
scalar TcpSynAttack.交换机[1].eth[0].mac passedUpPk:sum(packetBytes) 80896
attr interpolationmode none
attr source packetSentToUpper
attr title "packets passed to higher layer, sum(packetBytes)"
scalar TcpSynAttack.交换机[1].eth[0].mac packetDropIncorrectlyReceived:count 0
attr interpolationmode none
attr source packetDropReasonIsIncorrectlyReceived(packetDropped)
attr title "packet drop: incorrectly received, count"
scalar TcpSynAttack.交换机[1].eth[0].mac packetDropIncorrectlyReceived:sum(packetBytes) 0
attr interpolationmode none
attr source packetDropReasonIsIncorrectlyReceived(packetDropped)
attr title "packet drop: incorrectly received, sum(packetBytes)"
scalar TcpSynAttack.交换机[1].eth[0].mac packetDropInterfaceDown:count 0
attr interpolationmode none
attr source packetDropReasonIsInterfaceDown(packetDropped)
attr title "packet drop: interface down, count"
scalar TcpSynAttack.交换机[1].eth[0].mac packetDropInterfaceDown:sum(packetBytes) 0
attr interpolationmode none
attr source packetDropReasonIsInterfaceDown(packetDropped)
attr title "packet drop: interface down, sum(packetBytes)"
scalar TcpSynAttack.交换机[1].eth[0].mac packetDropNotAddressedToUs:count 0
attr interpolationmode none
attr source packetDropReasonIsNotAddressedToUs(packetDropped)
attr title "packet drop: not addressed to us, count"
scalar TcpSynAttack.交换机[1].eth[0].mac packetDropNotAddressedToUs:sum(packetBytes) 0
attr interpolationmode none
attr source packetDropReasonIsNotAddressedToUs(packetDropped)
attr title "packet drop: not addressed to us, sum(packetBytes)"
scalar TcpSynAttack.交换机[1].eth[1].mac.queue packetPopped:count 1904
attr interpolationmode none
attr title "packet popped, count"
scalar TcpSynAttack.交换机[1].eth[1].mac.queue packetPopped:sum(packetBytes) 121856
attr interpolationmode none
attr title "packet popped, sum(packetBytes)"
statistic TcpSynAttack.交换机[1].eth[1].mac.queue queueingTime:histogram
field count 1904
field mean 0.020135091281513
field stddev 0.014926515383718
field min 0
field max 0.0409437
field sum 38.3372138
field sqrsum 1.1959133387771
attr interpolationmode none
attr source queueingTime(packetPopped)
attr title "queueing times, histogram"
attr unit s
bin	-inf	0
bin	0	151
bin	0.00064	45
bin	0.00128	23
bin	0.00192	21
bin	0.00256	21
bin	0.0032	110
bin	0.00384	16
bin	0.00448	30
bin	0.00512	16
bin	0.00576	30
bin	0.0064	15
bin	0.00704	30
bin	0.00768	15
bin	0.00832	133
bin	0.00896	12
bin	0.0096	47
bin	0.01024	11
bin	0.01088	19
bin	0.01152	11
bin	0.01216	19
bin	0.0128	11
bin	0.01344	19
bin	0.01408	11
bin	0.01472	0
bin	0.01536	20
bin	0.016	10
bin	0.01664	20
bin	0.01728	10
bin	0.01792	20
bin	0.01856	10
bin	0.0192	270
bin	0.01984	5
bin	0.02048	10
bin	0.02112	5
bin	0.02176	9
bin	0.0224	6
bin	0.02304	9
bin	0.02368	6
bin	0.02432	9
bin	0.02496	6
bin	0.0256	9
bin	0.02624	6
bin	0.02688	9
bin	0.02752	6
bin	0.02816	5
bin	0.0288	5
bin	0.02944	5
bin	0.03008	10
bin	0.03072	5
bin	0.03136	10
bin	0.032	5
bin	0.03264	10
bin	0.03328	5
bin	0.03392	10
bin	0.03456	5
bin	0.0352	9
bin	0.03584	6
bin	0.03648	9
bin	0.03712	6
bin	0.03776	112
bin	0.0384	4
bin	0.03904	8
bin	0.03968	4
bin	0.04032	400
bin	0.04096	0
scalar TcpSynAttack.交换机[1].eth[1].mac.queue queueLength:max 61
attr interpolationmode sample-hold
attr source "count(packetPushed) - count(packetPopped) - count(packetRemoved) - count(packetDropped)"
attr title "queue length, max"
scalar TcpSynAttack.交换机[1].eth[1].mac.queue queueLength:timeavg 0.085193917511591
attr interpolationmode sample-hold
attr source "count(packetPushed) - count(packetPopped) - count(packetRemoved) - count(packetDropped)"
attr title "queue length, timeavg"
scalar TcpSynAttack.交换机[1].eth[1].mac.queue packetPushed:count 1904
attr interpolationmode none
attr title "packet pushed, count"
scalar TcpSynAttack.交换机[1].eth[1].mac.queue packetPushed:sum(packetBytes) 121856
attr interpolationmode none
attr title "packet pushed, sum(packetBytes)"
scalar TcpSynAttack.交换机[1].eth[1].mac.queue packetDropQueueOverflow:count 0
attr interpolationmode none
attr source packetDropReasonIsQueueOverflow(packetDropped)
attr title "packet drops: queue overflow, count"
scalar TcpSynAttack.交换机[1].eth[1].mac.queue packetDropQueueOverflow:sum(packetBytes) 0
attr interpolationmode none
attr source packetDropReasonIsQueueOverflow(packetDropped)
attr title "packet drops: queue overflow, sum(packetBytes)"
scalar TcpSynAttack.交换机[1].eth[1].mac.queue packetRemoved:count 0
attr interpolationmode none
attr title "packets removed, count"
scalar TcpSynAttack.交换机[1].eth[1].mac.queue packetRemoved:sum(packetBytes) 0
attr interpolationmode none
attr title "packets removed, sum(packetBytes)"
scalar TcpSynAttack.交换机[1].eth[1].mac "simulated time" 451
scalar TcpSynAttack.交换机[1].eth[1].mac full-duplex 1
scalar TcpSynAttack.交换机[1].eth[1].mac "frames/sec sent" 4.2217294900222
scalar TcpSynAttack.交换机[1].eth[1].mac "frames/sec rcvd" 7.5742793791574
scalar TcpSynAttack.交换机[1].eth[1].mac "bits/sec sent" 2161.5254988914
scalar TcpSynAttack.交换机[1].eth[1].mac "bits/sec rcvd" 3878.0310421286
scalar TcpSynAttack.交换机[1].eth[1].mac "rx channel idle (%)" 99.563721507761
scalar TcpSynAttack.交换机[1].eth[1].mac "rx channel utilization (%)" 0.43627849223947
scalar TcpSynAttack.交换机[1].eth[1].mac "rx channel collision (%)" 0
scalar TcpSynAttack.交换机[1].eth[1].mac collisions 0
scalar TcpSynAttack.交换机[1].eth[1].mac backoffs 0
scalar TcpSynAttack.交换机[1].eth[1].mac rxPausePkUnits:count 0
attr interpolationmode none
attr title "pause units received, count"
scalar TcpSynAttack.交换机[1].eth[1].mac rxPausePkUnits:sum 0
attr interpolationmode none
attr title "pause units received, sum"
scalar TcpSynAttack.交换机[1].eth[1].mac txPausePkUnits:count 0
attr interpolationmode none
attr title "pause units sent, count"
scalar TcpSynAttack.交换机[1].eth[1].mac txPausePkUnits:sum 0
attr interpolationmode none
attr title "pause units sent, sum"
scalar TcpSynAttack.交换机[1].eth[1].mac rxPkOk:count 3416
attr interpolationmode none
attr source rxPkOk
attr title "packets received OK, count"
scalar TcpSynAttack.交换机[1].eth[1].mac rxPkOk:sum(packetBytes) 218624
attr interpolationmode none
attr source rxPkOk
attr title "packets received OK, sum(packetBytes)"
scalar TcpSynAttack.交换机[1].eth[1].mac backoffSlotsGenerated:count 0
attr interpolationmode none
attr title "backoff, count"
scalar TcpSynAttack.交换机[1].eth[1].mac collision:count 0
attr interpolationmode none
attr title "collision, count"
scalar TcpSynAttack.交换机[1].eth[1].mac txPk:count 1904
attr interpolationmode none
attr source packetSentToLower
attr title "packets transmitted, count"
scalar TcpSynAttack.交换机[1].eth[1].mac txPk:sum(packetBytes) 121856
attr interpolationmode none
attr source packetSentToLower
attr title "packets transmitted, sum(packetBytes)"
scalar TcpSynAttack.交换机[1].eth[1].mac packetReceivedFromUpper:count 1904
attr interpolationmode none
attr source packetReceivedFromUpper
attr title "packet bytes from higher layer, count"
scalar TcpSynAttack.交换机[1].eth[1].mac packetReceivedFromUpper:sum(packetBytes) 121856
attr interpolationmode none
attr source packetReceivedFromUpper
attr title "packet bytes from higher layer, sum(packetBytes)"
scalar TcpSynAttack.交换机[1].eth[1].mac passedUpPk:count 3416
attr interpolationmode none
attr source packetSentToUpper
attr title "packets passed to higher layer, count"
scalar TcpSynAttack.交换机[1].eth[1].mac passedUpPk:sum(packetBytes) 218624
attr interpolationmode none
attr source packetSentToUpper
attr title "packets passed to higher layer, sum(packetBytes)"
scalar TcpSynAttack.交换机[1].eth[1].mac packetDropIncorrectlyReceived:count 0
attr interpolationmode none
attr source packetDropReasonIsIncorrectlyReceived(packetDropped)
attr title "packet drop: incorrectly received, count"
scalar TcpSynAttack.交换机[1].eth[1].mac packetDropIncorrectlyReceived:sum(packetBytes) 0
attr interpolationmode none
attr source packetDropReasonIsIncorrectlyReceived(packetDropped)
attr title "packet drop: incorrectly received, sum(packetBytes)"
scalar TcpSynAttack.交换机[1].eth[1].mac packetDropInterfaceDown:count 0
attr interpolationmode none
attr source packetDropReasonIsInterfaceDown(packetDropped)
attr title "packet drop: interface down, count"
scalar TcpSynAttack.交换机[1].eth[1].mac packetDropInterfaceDown:sum(packetBytes) 0
attr interpolationmode none
attr source packetDropReasonIsInterfaceDown(packetDropped)
attr title "packet drop: interface down, sum(packetBytes)"
scalar TcpSynAttack.交换机[1].eth[1].mac packetDropNotAddressedToUs:count 0
attr interpolationmode none
attr source packetDropReasonIsNotAddressedToUs(packetDropped)
attr title "packet drop: not addressed to us, count"
scalar TcpSynAttack.交换机[1].eth[1].mac packetDropNotAddressedToUs:sum(packetBytes) 0
attr interpolationmode none
attr source packetDropReasonIsNotAddressedToUs(packetDropped)
attr title "packet drop: not addressed to us, sum(packetBytes)"
scalar TcpSynAttack.交换机[1].eth[2].mac.queue packetPopped:count 581
attr interpolationmode none
attr title "packet popped, count"
scalar TcpSynAttack.交换机[1].eth[2].mac.queue packetPopped:sum(packetBytes) 37184
attr interpolationmode none
attr title "packet popped, sum(packetBytes)"
statistic TcpSynAttack.交换机[1].eth[2].mac.queue queueingTime:histogram
field count 581
field mean 7.433734939759e-07
field stddev 1.7918231275664e-05
field min 0
field max 0.0004319
field sum 0.0004319
field sqrsum 1.8653761e-07
attr interpolationmode none
attr source queueingTime(packetPopped)
attr title "queueing times, histogram"
attr unit s
bin	-inf	0
bin	-0.5	0
bin	-0.48	0
bin	-0.46	0
bin	-0.44	0
bin	-0.42	0
bin	-0.4	0
bin	-0.38	0
bin	-0.36	0
bin	-0.34	0
bin	-0.32	0
bin	-0.3	0
bin	-0.28	0
bin	-0.26	0
bin	-0.24	0
bin	-0.22	0
bin	-0.2	0
bin	-0.18	0
bin	-0.16	0
bin	-0.14	0
bin	-0.12	0
bin	-0.1	0
bin	-0.08	0
bin	-0.06	0
bin	-0.04	0
bin	-0.02	0
bin	0	581
bin	0.02	0
bin	0.04	0
bin	0.06	0
bin	0.08	0
bin	0.1	0
bin	0.12	0
bin	0.14	0
bin	0.16	0
bin	0.18	0
bin	0.2	0
bin	0.22	0
bin	0.24	0
bin	0.26	0
bin	0.28	0
bin	0.3	0
bin	0.32	0
bin	0.34	0
bin	0.36	0
bin	0.38	0
bin	0.4	0
bin	0.42	0
bin	0.44	0
bin	0.46	0
bin	0.48	0
bin	0.5	0
scalar TcpSynAttack.交换机[1].eth[2].mac.queue queueLength:max 1
attr interpolationmode sample-hold
attr source "count(packetPushed) - count(packetPopped) - count(packetRemoved) - count(packetDropped)"
attr title "queue length, max"
scalar TcpSynAttack.交换机[1].eth[2].mac.queue queueLength:timeavg 9.5977900650819e-07
attr interpolationmode sample-hold
attr source "count(packetPushed) - count(packetPopped) - count(packetRemoved) - count(packetDropped)"
attr title "queue length, timeavg"
scalar TcpSynAttack.交换机[1].eth[2].mac.queue packetPushed:count 581
attr interpolationmode none
attr title "packet pushed, count"
scalar TcpSynAttack.交换机[1].eth[2].mac.queue packetPushed:sum(packetBytes) 37184
attr interpolationmode none
attr title "packet pushed, sum(packetBytes)"
scalar TcpSynAttack.交换机[1].eth[2].mac.queue packetDropQueueOverflow:count 0
attr interpolationmode none
attr source packetDropReasonIsQueueOverflow(packetDropped)
attr title "packet drops: queue overflow, count"
scalar TcpSynAttack.交换机[1].eth[2].mac.queue packetDropQueueOverflow:sum(packetBytes) 0
attr interpolationmode none
attr source packetDropReasonIsQueueOverflow(packetDropped)
attr title "packet drops: queue overflow, sum(packetBytes)"
scalar TcpSynAttack.交换机[1].eth[2].mac.queue packetRemoved:count 0
attr interpolationmode none
attr title "packets removed, count"
scalar TcpSynAttack.交换机[1].eth[2].mac.queue packetRemoved:sum(packetBytes) 0
attr interpolationmode none
attr title "packets removed, sum(packetBytes)"
scalar TcpSynAttack.交换机[1].eth[2].mac "simulated time" 451
scalar TcpSynAttack.交换机[1].eth[2].mac full-duplex 1
scalar TcpSynAttack.交换机[1].eth[2].mac "frames/sec sent" 1.2882483370288
scalar TcpSynAttack.交换机[1].eth[2].mac "frames/sec rcvd" 0.70953436807095
scalar TcpSynAttack.交换机[1].eth[2].mac "bits/sec sent" 659.58314855876
scalar TcpSynAttack.交换机[1].eth[2].mac "bits/sec rcvd" 363.28159645233
scalar TcpSynAttack.交换机[1].eth[2].mac "rx channel idle (%)" 99.959130820399
scalar TcpSynAttack.交换机[1].eth[2].mac "rx channel utilization (%)" 0.040869179600887
scalar TcpSynAttack.交换机[1].eth[2].mac "rx channel collision (%)" 0
scalar TcpSynAttack.交换机[1].eth[2].mac collisions 0
scalar TcpSynAttack.交换机[1].eth[2].mac backoffs 0
scalar TcpSynAttack.交换机[1].eth[2].mac rxPausePkUnits:count 0
attr interpolationmode none
attr title "pause units received, count"
scalar TcpSynAttack.交换机[1].eth[2].mac rxPausePkUnits:sum 0
attr interpolationmode none
attr title "pause units received, sum"
scalar TcpSynAttack.交换机[1].eth[2].mac txPausePkUnits:count 0
attr interpolationmode none
attr title "pause units sent, count"
scalar TcpSynAttack.交换机[1].eth[2].mac txPausePkUnits:sum 0
attr interpolationmode none
attr title "pause units sent, sum"
scalar TcpSynAttack.交换机[1].eth[2].mac rxPkOk:count 320
attr interpolationmode none
attr source rxPkOk
attr title "packets received OK, count"
scalar TcpSynAttack.交换机[1].eth[2].mac rxPkOk:sum(packetBytes) 20480
attr interpolationmode none
attr source rxPkOk
attr title "packets received OK, sum(packetBytes)"
scalar TcpSynAttack.交换机[1].eth[2].mac backoffSlotsGenerated:count 0
attr interpolationmode none
attr title "backoff, count"
scalar TcpSynAttack.交换机[1].eth[2].mac collision:count 0
attr interpolationmode none
attr title "collision, count"
scalar TcpSynAttack.交换机[1].eth[2].mac txPk:count 581
attr interpolationmode none
attr source packetSentToLower
attr title "packets transmitted, count"
scalar TcpSynAttack.交换机[1].eth[2].mac txPk:sum(packetBytes) 37184
attr interpolationmode none
attr source packetSentToLower
attr title "packets transmitted, sum(packetBytes)"
scalar TcpSynAttack.交换机[1].eth[2].mac packetReceivedFromUpper:count 581
attr interpolationmode none
attr source packetReceivedFromUpper
attr title "packet bytes from higher layer, count"
scalar TcpSynAttack.交换机[1].eth[2].mac packetReceivedFromUpper:sum(packetBytes) 37184
attr interpolationmode none
attr source packetReceivedFromUpper
attr title "packet bytes from higher layer, sum(packetBytes)"
scalar TcpSynAttack.交换机[1].eth[2].mac passedUpPk:count 320
attr interpolationmode none
attr source packetSentToUpper
attr title "packets passed to higher layer, count"
scalar TcpSynAttack.交换机[1].eth[2].mac passedUpPk:sum(packetBytes) 20480
attr interpolationmode none
attr source packetSentToUpper
attr title "packets passed to higher layer, sum(packetBytes)"
scalar TcpSynAttack.交换机[1].eth[2].mac packetDropIncorrectlyReceived:count 0
attr interpolationmode none
attr source packetDropReasonIsIncorrectlyReceived(packetDropped)
attr title "packet drop: incorrectly received, count"
scalar TcpSynAttack.交换机[1].eth[2].mac packetDropIncorrectlyReceived:sum(packetBytes) 0
attr interpolationmode none
attr source packetDropReasonIsIncorrectlyReceived(packetDropped)
attr title "packet drop: incorrectly received, sum(packetBytes)"
scalar TcpSynAttack.交换机[1].eth[2].mac packetDropInterfaceDown:count 0
attr interpolationmode none
attr source packetDropReasonIsInterfaceDown(packetDropped)
attr title "packet drop: interface down, count"
scalar TcpSynAttack.交换机[1].eth[2].mac packetDropInterfaceDown:sum(packetBytes) 0
attr interpolationmode none
attr source packetDropReasonIsInterfaceDown(packetDropped)
attr title "packet drop: interface down, sum(packetBytes)"
scalar TcpSynAttack.交换机[1].eth[2].mac packetDropNotAddressedToUs:count 0
attr interpolationmode none
attr source packetDropReasonIsNotAddressedToUs(packetDropped)
attr title "packet drop: not addressed to us, count"
scalar TcpSynAttack.交换机[1].eth[2].mac packetDropNotAddressedToUs:sum(packetBytes) 0
attr interpolationmode none
attr source packetDropReasonIsNotAddressedToUs(packetDropped)
attr title "packet drop: not addressed to us, sum(packetBytes)"
scalar TcpSynAttack.交换机[1].eth[3].mac.queue packetPopped:count 581
attr interpolationmode none
attr title "packet popped, count"
scalar TcpSynAttack.交换机[1].eth[3].mac.queue packetPopped:sum(packetBytes) 37184
attr interpolationmode none
attr title "packet popped, sum(packetBytes)"
statistic TcpSynAttack.交换机[1].eth[3].mac.queue queueingTime:histogram
field count 581
field mean 8.2616179001721e-07
field stddev 1.8025588246214e-05
field min 0
field max 0.0004319
field sum 0.00048
field sqrsum 1.8885122e-07
attr interpolationmode none
attr source queueingTime(packetPopped)
attr title "queueing times, histogram"
attr unit s
bin	-inf	0
bin	0	579
bin	1e-05	0
bin	2e-05	0
bin	3e-05	0
bin	4e-05	1
bin	5e-05	0
bin	6e-05	0
bin	7e-05	0
bin	8e-05	0
bin	9e-05	0
bin	0.0001	0
bin	0.00011	0
bin	0.00012	0
bin	0.00013	0
bin	0.00014	0
bin	0.00015	0
bin	0.00016	0
bin	0.00017	0
bin	0.00018	0
bin	0.00019	0
bin	0.0002	0
bin	0.00021	0
bin	0.00022	0
bin	0.00023	0
bin	0.00024	0
bin	0.00025	0
bin	0.00026	0
bin	0.00027	0
bin	0.00028	0
bin	0.00029	0
bin	0.0003	0
bin	0.00031	0
bin	0.00032	0
bin	0.00033	0
bin	0.00034	0
bin	0.00035	0
bin	0.00036	0
bin	0.00037	0
bin	0.00038	0
bin	0.00039	0
bin	0.0004	0
bin	0.00041	0
bin	0.00042	0
bin	0.00043	1
bin	0.00044	0
bin	0.00045	0
bin	0.00046	0
bin	0.00047	0
bin	0.00048	0
bin	0.00049	0
bin	0.0005	0
bin	0.00051	0
bin	0.00052	0
bin	0.00053	0
bin	0.00054	0
scalar TcpSynAttack.交换机[1].eth[3].mac.queue queueLength:max 1
attr interpolationmode sample-hold
attr source "count(packetPushed) - count(packetPopped) - count(packetRemoved) - count(packetDropped)"
attr title "queue length, max"
scalar TcpSynAttack.交换机[1].eth[3].mac.queue queueLength:timeavg 1.0666680322388e-06
attr interpolationmode sample-hold
attr source "count(packetPushed) - count(packetPopped) - count(packetRemoved) - count(packetDropped)"
attr title "queue length, timeavg"
scalar TcpSynAttack.交换机[1].eth[3].mac.queue packetPushed:count 581
attr interpolationmode none
attr title "packet pushed, count"
scalar TcpSynAttack.交换机[1].eth[3].mac.queue packetPushed:sum(packetBytes) 37184
attr interpolationmode none
attr title "packet pushed, sum(packetBytes)"
scalar TcpSynAttack.交换机[1].eth[3].mac.queue packetDropQueueOverflow:count 0
attr interpolationmode none
attr source packetDropReasonIsQueueOverflow(packetDropped)
attr title "packet drops: queue overflow, count"
scalar TcpSynAttack.交换机[1].eth[3].mac.queue packetDropQueueOverflow:sum(packetBytes) 0
attr interpolationmode none
attr source packetDropReasonIsQueueOverflow(packetDropped)
attr title "packet drops: queue overflow, sum(packetBytes)"
scalar TcpSynAttack.交换机[1].eth[3].mac.queue packetRemoved:count 0
attr interpolationmode none
attr title "packets removed, count"
scalar TcpSynAttack.交换机[1].eth[3].mac.queue packetRemoved:sum(packetBytes) 0
attr interpolationmode none
attr title "packets removed, sum(packetBytes)"
scalar TcpSynAttack.交换机[1].eth[3].mac "simulated time" 451
scalar TcpSynAttack.交换机[1].eth[3].mac full-duplex 1
scalar TcpSynAttack.交换机[1].eth[3].mac "frames/sec sent" 1.2882483370288
scalar TcpSynAttack.交换机[1].eth[3].mac "frames/sec rcvd" 0.70953436807095
scalar TcpSynAttack.交换机[1].eth[3].mac "bits/sec sent" 659.58314855876
scalar TcpSynAttack.交换机[1].eth[3].mac "bits/sec rcvd" 363.28159645233
scalar TcpSynAttack.交换机[1].eth[3].mac "rx channel idle (%)" 99.959130820399
scalar TcpSynAttack.交换机[1].eth[3].mac "rx channel utilization (%)" 0.040869179600887
scalar TcpSynAttack.交换机[1].eth[3].mac "rx channel collision (%)" 0
scalar TcpSynAttack.交换机[1].eth[3].mac collisions 0
scalar TcpSynAttack.交换机[1].eth[3].mac backoffs 0
scalar TcpSynAttack.交换机[1].eth[3].mac rxPausePkUnits:count 0
attr interpolationmode none
attr title "pause units received, count"
scalar TcpSynAttack.交换机[1].eth[3].mac rxPausePkUnits:sum 0
attr interpolationmode none
attr title "pause units received, sum"
scalar TcpSynAttack.交换机[1].eth[3].mac txPausePkUnits:count 0
attr interpolationmode none
attr title "pause units sent, count"
scalar TcpSynAttack.交换机[1].eth[3].mac txPausePkUnits:sum 0
attr interpolationmode none
attr title "pause units sent, sum"
scalar TcpSynAttack.交换机[1].eth[3].mac rxPkOk:count 320
attr interpolationmode none
attr source rxPkOk
attr title "packets received OK, count"
scalar TcpSynAttack.交换机[1].eth[3].mac rxPkOk:sum(packetBytes) 20480
attr interpolationmode none
attr source rxPkOk
attr title "packets received OK, sum(packetBytes)"
scalar TcpSynAttack.交换机[1].eth[3].mac backoffSlotsGenerated:count 0
attr interpolationmode none
attr title "backoff, count"
scalar TcpSynAttack.交换机[1].eth[3].mac collision:count 0
attr interpolationmode none
attr title "collision, count"
scalar TcpSynAttack.交换机[1].eth[3].mac txPk:count 581
attr interpolationmode none
attr source packetSentToLower
attr title "packets transmitted, count"
scalar TcpSynAttack.交换机[1].eth[3].mac txPk:sum(packetBytes) 37184
attr interpolationmode none
attr source packetSentToLower
attr title "packets transmitted, sum(packetBytes)"
scalar TcpSynAttack.交换机[1].eth[3].mac packetReceivedFromUpper:count 581
attr interpolationmode none
attr source packetReceivedFromUpper
attr title "packet bytes from higher layer, count"
scalar TcpSynAttack.交换机[1].eth[3].mac packetReceivedFromUpper:sum(packetBytes) 37184
attr interpolationmode none
attr source packetReceivedFromUpper
attr title "packet bytes from higher layer, sum(packetBytes)"
scalar TcpSynAttack.交换机[1].eth[3].mac passedUpPk:count 320
attr interpolationmode none
attr source packetSentToUpper
attr title "packets passed to higher layer, count"
scalar TcpSynAttack.交换机[1].eth[3].mac passedUpPk:sum(packetBytes) 20480
attr interpolationmode none
attr source packetSentToUpper
attr title "packets passed to higher layer, sum(packetBytes)"
scalar TcpSynAttack.交换机[1].eth[3].mac packetDropIncorrectlyReceived:count 0
attr interpolationmode none
attr source packetDropReasonIsIncorrectlyReceived(packetDropped)
attr title "packet drop: incorrectly received, count"
scalar TcpSynAttack.交换机[1].eth[3].mac packetDropIncorrectlyReceived:sum(packetBytes) 0
attr interpolationmode none
attr source packetDropReasonIsIncorrectlyReceived(packetDropped)
attr title "packet drop: incorrectly received, sum(packetBytes)"
scalar TcpSynAttack.交换机[1].eth[3].mac packetDropInterfaceDown:count 0
attr interpolationmode none
attr source packetDropReasonIsInterfaceDown(packetDropped)
attr title "packet drop: interface down, count"
scalar TcpSynAttack.交换机[1].eth[3].mac packetDropInterfaceDown:sum(packetBytes) 0
attr interpolationmode none
attr source packetDropReasonIsInterfaceDown(packetDropped)
attr title "packet drop: interface down, sum(packetBytes)"
scalar TcpSynAttack.交换机[1].eth[3].mac packetDropNotAddressedToUs:count 0
attr interpolationmode none
attr source packetDropReasonIsNotAddressedToUs(packetDropped)
attr title "packet drop: not addressed to us, count"
scalar TcpSynAttack.交换机[1].eth[3].mac packetDropNotAddressedToUs:sum(packetBytes) 0
attr interpolationmode none
attr source packetDropReasonIsNotAddressedToUs(packetDropped)
attr title "packet drop: not addressed to us, sum(packetBytes)"
scalar TcpSynAttack.交换机[1].encap pauseSent:count 0
attr title "pause sent, count"
scalar TcpSynAttack.交换机[1].encap pauseSent:sum 0
attr title "pause sent, sum"
scalar TcpSynAttack.交换机[1].encap decapPk:count 0
attr interpolationmode none
attr source decapPk
attr title "packets decapsulated, count"
scalar TcpSynAttack.交换机[1].encap decapPk:sum(packetBytes) 0
attr interpolationmode none
attr source decapPk
attr title "packets decapsulated, sum(packetBytes)"
scalar TcpSynAttack.交换机[1].encap encapPk:count 0
attr interpolationmode none
attr source encapPk
attr title "packets encapsulated, count"
scalar TcpSynAttack.交换机[1].encap encapPk:sum(packetBytes) 0
attr interpolationmode none
attr source encapPk
attr title "packets encapsulated, sum(packetBytes)"
scalar TcpSynAttack.交换机[2].relayUnit "number of received BPDUs from STP module" 0
scalar TcpSynAttack.交换机[2].relayUnit "number of received frames from network (including BPDUs)" 1780
scalar TcpSynAttack.交换机[2].relayUnit "number of dropped frames (including BPDUs)" 0
scalar TcpSynAttack.交换机[2].relayUnit "number of delivered BPDUs to the STP module" 0
scalar TcpSynAttack.交换机[2].relayUnit "number of dispatched BPDU frames to the network" 0
scalar TcpSynAttack.交换机[2].relayUnit "number of dispatched non-BDPU frames to the network" 1788
scalar TcpSynAttack.交换机[2].eth[0].mac.queue packetPopped:count 638
attr interpolationmode none
attr title "packet popped, count"
scalar TcpSynAttack.交换机[2].eth[0].mac.queue packetPopped:sum(packetBytes) 40832
attr interpolationmode none
attr title "packet popped, sum(packetBytes)"
statistic TcpSynAttack.交换机[2].eth[0].mac.queue queueingTime:histogram
field count 638
field mean 0.007058407523511
field stddev 0.0060443413902189
field min 0
field max 0.021408
field sum 4.503264
field sqrsum 0.055058070528
attr interpolationmode none
attr source queueingTime(packetPopped)
attr title "queueing times, histogram"
attr unit s
bin	-inf	0
bin	0	38
bin	0.0004	57
bin	0.0008	0
bin	0.0012	45
bin	0.0016	40
bin	0.002	0
bin	0.0024	35
bin	0.0028	0
bin	0.0032	30
bin	0.0036	30
bin	0.004	0
bin	0.0044	30
bin	0.0048	0
bin	0.0052	24
bin	0.0056	20
bin	0.006	0
bin	0.0064	20
bin	0.0068	0
bin	0.0072	20
bin	0.0076	20
bin	0.008	0
bin	0.0084	20
bin	0.0088	0
bin	0.0092	20
bin	0.0096	20
bin	0.01	0
bin	0.0104	15
bin	0.0108	0
bin	0.0112	10
bin	0.0116	0
bin	0.012	10
bin	0.0124	10
bin	0.0128	0
bin	0.0132	10
bin	0.0136	0
bin	0.014	10
bin	0.0144	10
bin	0.0148	0
bin	0.0152	10
bin	0.0156	0
bin	0.016	10
bin	0.0164	10
bin	0.0168	0
bin	0.0172	10
bin	0.0176	0
bin	0.018	10
bin	0.0184	10
bin	0.0188	0
bin	0.0192	10
bin	0.0196	0
bin	0.02	10
bin	0.0204	10
bin	0.0208	0
bin	0.0212	4
bin	0.0216	0
scalar TcpSynAttack.交换机[2].eth[0].mac.queue queueLength:max 32
attr interpolationmode sample-hold
attr source "count(packetPushed) - count(packetPopped) - count(packetRemoved) - count(packetDropped)"
attr title "queue length, max"
scalar TcpSynAttack.交换机[2].eth[0].mac.queue queueLength:timeavg 0.010007266144858
attr interpolationmode sample-hold
attr source "count(packetPushed) - count(packetPopped) - count(packetRemoved) - count(packetDropped)"
attr title "queue length, timeavg"
scalar TcpSynAttack.交换机[2].eth[0].mac.queue packetPushed:count 638
attr interpolationmode none
attr title "packet pushed, count"
scalar TcpSynAttack.交换机[2].eth[0].mac.queue packetPushed:sum(packetBytes) 40832
attr interpolationmode none
attr title "packet pushed, sum(packetBytes)"
scalar TcpSynAttack.交换机[2].eth[0].mac.queue packetDropQueueOverflow:count 0
attr interpolationmode none
attr source packetDropReasonIsQueueOverflow(packetDropped)
attr title "packet drops: queue overflow, count"
scalar TcpSynAttack.交换机[2].eth[0].mac.queue packetDropQueueOverflow:sum(packetBytes) 0
attr interpolationmode none
attr source packetDropReasonIsQueueOverflow(packetDropped)
attr title "packet drops: queue overflow, sum(packetBytes)"
scalar TcpSynAttack.交换机[2].eth[0].mac.queue packetRemoved:count 0
attr interpolationmode none
attr title "packets removed, count"
scalar TcpSynAttack.交换机[2].eth[0].mac.queue packetRemoved:sum(packetBytes) 0
attr interpolationmode none
attr title "packets removed, sum(packetBytes)"
scalar TcpSynAttack.交换机[2].eth[0].mac "simulated time" 451
scalar TcpSynAttack.交换机[2].eth[0].mac full-duplex 1
scalar TcpSynAttack.交换机[2].eth[0].mac "frames/sec sent" 1.4146341463415
scalar TcpSynAttack.交换机[2].eth[0].mac "frames/sec rcvd" 2.5321507760532
scalar TcpSynAttack.交换机[2].eth[0].mac "bits/sec sent" 724.29268292683
scalar TcpSynAttack.交换机[2].eth[0].mac "bits/sec rcvd" 1296.4611973392
scalar TcpSynAttack.交换机[2].eth[0].mac "rx channel idle (%)" 99.854148115299
scalar TcpSynAttack.交换机[2].eth[0].mac "rx channel utilization (%)" 0.14585188470067
scalar TcpSynAttack.交换机[2].eth[0].mac "rx channel collision (%)" 0
scalar TcpSynAttack.交换机[2].eth[0].mac collisions 0
scalar TcpSynAttack.交换机[2].eth[0].mac backoffs 0
scalar TcpSynAttack.交换机[2].eth[0].mac rxPausePkUnits:count 0
attr interpolationmode none
attr title "pause units received, count"
scalar TcpSynAttack.交换机[2].eth[0].mac rxPausePkUnits:sum 0
attr interpolationmode none
attr title "pause units received, sum"
scalar TcpSynAttack.交换机[2].eth[0].mac txPausePkUnits:count 0
attr interpolationmode none
attr title "pause units sent, count"
scalar TcpSynAttack.交换机[2].eth[0].mac txPausePkUnits:sum 0
attr interpolationmode none
attr title "pause units sent, sum"
scalar TcpSynAttack.交换机[2].eth[0].mac rxPkOk:count 1142
attr interpolationmode none
attr source rxPkOk
attr title "packets received OK, count"
scalar TcpSynAttack.交换机[2].eth[0].mac rxPkOk:sum(packetBytes) 73088
attr interpolationmode none
attr source rxPkOk
attr title "packets received OK, sum(packetBytes)"
scalar TcpSynAttack.交换机[2].eth[0].mac backoffSlotsGenerated:count 0
attr interpolationmode none
attr title "backoff, count"
scalar TcpSynAttack.交换机[2].eth[0].mac collision:count 0
attr interpolationmode none
attr title "collision, count"
scalar TcpSynAttack.交换机[2].eth[0].mac txPk:count 638
attr interpolationmode none
attr source packetSentToLower
attr title "packets transmitted, count"
scalar TcpSynAttack.交换机[2].eth[0].mac txPk:sum(packetBytes) 40832
attr interpolationmode none
attr source packetSentToLower
attr title "packets transmitted, sum(packetBytes)"
scalar TcpSynAttack.交换机[2].eth[0].mac packetReceivedFromUpper:count 638
attr interpolationmode none
attr source packetReceivedFromUpper
attr title "packet bytes from higher layer, count"
scalar TcpSynAttack.交换机[2].eth[0].mac packetReceivedFromUpper:sum(packetBytes) 40832
attr interpolationmode none
attr source packetReceivedFromUpper
attr title "packet bytes from higher layer, sum(packetBytes)"
scalar TcpSynAttack.交换机[2].eth[0].mac passedUpPk:count 1142
attr interpolationmode none
attr source packetSentToUpper
attr title "packets passed to higher layer, count"
scalar TcpSynAttack.交换机[2].eth[0].mac passedUpPk:sum(packetBytes) 73088
attr interpolationmode none
attr source packetSentToUpper
attr title "packets passed to higher layer, sum(packetBytes)"
scalar TcpSynAttack.交换机[2].eth[0].mac packetDropIncorrectlyReceived:count 0
attr interpolationmode none
attr source packetDropReasonIsIncorrectlyReceived(packetDropped)
attr title "packet drop: incorrectly received, count"
scalar TcpSynAttack.交换机[2].eth[0].mac packetDropIncorrectlyReceived:sum(packetBytes) 0
attr interpolationmode none
attr source packetDropReasonIsIncorrectlyReceived(packetDropped)
attr title "packet drop: incorrectly received, sum(packetBytes)"
scalar TcpSynAttack.交换机[2].eth[0].mac packetDropInterfaceDown:count 0
attr interpolationmode none
attr source packetDropReasonIsInterfaceDown(packetDropped)
attr title "packet drop: interface down, count"
scalar TcpSynAttack.交换机[2].eth[0].mac packetDropInterfaceDown:sum(packetBytes) 0
attr interpolationmode none
attr source packetDropReasonIsInterfaceDown(packetDropped)
attr title "packet drop: interface down, sum(packetBytes)"
scalar TcpSynAttack.交换机[2].eth[0].mac packetDropNotAddressedToUs:count 0
attr interpolationmode none
attr source packetDropReasonIsNotAddressedToUs(packetDropped)
attr title "packet drop: not addressed to us, count"
scalar TcpSynAttack.交换机[2].eth[0].mac packetDropNotAddressedToUs:sum(packetBytes) 0
attr interpolationmode none
attr source packetDropReasonIsNotAddressedToUs(packetDropped)
attr title "packet drop: not addressed to us, sum(packetBytes)"
scalar TcpSynAttack.交换机[2].eth[1].mac.queue packetPopped:count 575
attr interpolationmode none
attr title "packet popped, count"
scalar TcpSynAttack.交换机[2].eth[1].mac.queue packetPopped:sum(packetBytes) 36800
attr interpolationmode none
attr title "packet popped, sum(packetBytes)"
statistic TcpSynAttack.交换机[2].eth[1].mac.queue queueingTime:histogram
field count 575
field mean 0
field stddev 0
field min 0
field max 0
field sum 0
field sqrsum 0
attr interpolationmode none
attr source queueingTime(packetPopped)
attr title "queueing times, histogram"
attr unit s
bin	-inf	0
bin	-0.5	0
bin	-0.48	0
bin	-0.46	0
bin	-0.44	0
bin	-0.42	0
bin	-0.4	0
bin	-0.38	0
bin	-0.36	0
bin	-0.34	0
bin	-0.32	0
bin	-0.3	0
bin	-0.28	0
bin	-0.26	0
bin	-0.24	0
bin	-0.22	0
bin	-0.2	0
bin	-0.18	0
bin	-0.16	0
bin	-0.14	0
bin	-0.12	0
bin	-0.1	0
bin	-0.08	0
bin	-0.06	0
bin	-0.04	0
bin	-0.02	0
bin	0	575
bin	0.02	0
bin	0.04	0
bin	0.06	0
bin	0.08	0
bin	0.1	0
bin	0.12	0
bin	0.14	0
bin	0.16	0
bin	0.18	0
bin	0.2	0
bin	0.22	0
bin	0.24	0
bin	0.26	0
bin	0.28	0
bin	0.3	0
bin	0.32	0
bin	0.34	0
bin	0.36	0
bin	0.38	0
bin	0.4	0
bin	0.42	0
bin	0.44	0
bin	0.46	0
bin	0.48	0
bin	0.5	0
scalar TcpSynAttack.交换机[2].eth[1].mac.queue queueLength:max 1
attr interpolationmode sample-hold
attr source "count(packetPushed) - count(packetPopped) - count(packetRemoved) - count(packetDropped)"
attr title "queue length, max"
scalar TcpSynAttack.交换机[2].eth[1].mac.queue queueLength:timeavg 0
attr interpolationmode sample-hold
attr source "count(packetPushed) - count(packetPopped) - count(packetRemoved) - count(packetDropped)"
attr title "queue length, timeavg"
scalar TcpSynAttack.交换机[2].eth[1].mac.queue packetPushed:count 575
attr interpolationmode none
attr title "packet pushed, count"
scalar TcpSynAttack.交换机[2].eth[1].mac.queue packetPushed:sum(packetBytes) 36800
attr interpolationmode none
attr title "packet pushed, sum(packetBytes)"
scalar TcpSynAttack.交换机[2].eth[1].mac.queue packetDropQueueOverflow:count 0
attr interpolationmode none
attr source packetDropReasonIsQueueOverflow(packetDropped)
attr title "packet drops: queue overflow, count"
scalar TcpSynAttack.交换机[2].eth[1].mac.queue packetDropQueueOverflow:sum(packetBytes) 0
attr interpolationmode none
attr source packetDropReasonIsQueueOverflow(packetDropped)
attr title "packet drops: queue overflow, sum(packetBytes)"
scalar TcpSynAttack.交换机[2].eth[1].mac.queue packetRemoved:count 0
attr interpolationmode none
attr title "packets removed, count"
scalar TcpSynAttack.交换机[2].eth[1].mac.queue packetRemoved:sum(packetBytes) 0
attr interpolationmode none
attr title "packets removed, sum(packetBytes)"
scalar TcpSynAttack.交换机[2].eth[1].mac "simulated time" 451
scalar TcpSynAttack.交换机[2].eth[1].mac full-duplex 1
scalar TcpSynAttack.交换机[2].eth[1].mac "frames/sec sent" 1.2749445676275
scalar TcpSynAttack.交换机[2].eth[1].mac "frames/sec rcvd" 0.70731707317073
scalar TcpSynAttack.交换机[2].eth[1].mac "bits/sec sent" 652.77161862528
scalar TcpSynAttack.交换机[2].eth[1].mac "bits/sec rcvd" 362.14634146341
scalar TcpSynAttack.交换机[2].eth[1].mac "rx channel idle (%)" 99.959258536585
scalar TcpSynAttack.交换机[2].eth[1].mac "rx channel utilization (%)" 0.040741463414634
scalar TcpSynAttack.交换机[2].eth[1].mac "rx channel collision (%)" 0
scalar TcpSynAttack.交换机[2].eth[1].mac collisions 0
scalar TcpSynAttack.交换机[2].eth[1].mac backoffs 0
scalar TcpSynAttack.交换机[2].eth[1].mac rxPausePkUnits:count 0
attr interpolationmode none
attr title "pause units received, count"
scalar TcpSynAttack.交换机[2].eth[1].mac rxPausePkUnits:sum 0
attr interpolationmode none
attr title "pause units received, sum"
scalar TcpSynAttack.交换机[2].eth[1].mac txPausePkUnits:count 0
attr interpolationmode none
attr title "pause units sent, count"
scalar TcpSynAttack.交换机[2].eth[1].mac txPausePkUnits:sum 0
attr interpolationmode none
attr title "pause units sent, sum"
scalar TcpSynAttack.交换机[2].eth[1].mac rxPkOk:count 319
attr interpolationmode none
attr source rxPkOk
attr title "packets received OK, count"
scalar TcpSynAttack.交换机[2].eth[1].mac rxPkOk:sum(packetBytes) 20416
attr interpolationmode none
attr source rxPkOk
attr title "packets received OK, sum(packetBytes)"
scalar TcpSynAttack.交换机[2].eth[1].mac backoffSlotsGenerated:count 0
attr interpolationmode none
attr title "backoff, count"
scalar TcpSynAttack.交换机[2].eth[1].mac collision:count 0
attr interpolationmode none
attr title "collision, count"
scalar TcpSynAttack.交换机[2].eth[1].mac txPk:count 575
attr interpolationmode none
attr source packetSentToLower
attr title "packets transmitted, count"
scalar TcpSynAttack.交换机[2].eth[1].mac txPk:sum(packetBytes) 36800
attr interpolationmode none
attr source packetSentToLower
attr title "packets transmitted, sum(packetBytes)"
scalar TcpSynAttack.交换机[2].eth[1].mac packetReceivedFromUpper:count 575
attr interpolationmode none
attr source packetReceivedFromUpper
attr title "packet bytes from higher layer, count"
scalar TcpSynAttack.交换机[2].eth[1].mac packetReceivedFromUpper:sum(packetBytes) 36800
attr interpolationmode none
attr source packetReceivedFromUpper
attr title "packet bytes from higher layer, sum(packetBytes)"
scalar TcpSynAttack.交换机[2].eth[1].mac passedUpPk:count 319
attr interpolationmode none
attr source packetSentToUpper
attr title "packets passed to higher layer, count"
scalar TcpSynAttack.交换机[2].eth[1].mac passedUpPk:sum(packetBytes) 20416
attr interpolationmode none
attr source packetSentToUpper
attr title "packets passed to higher layer, sum(packetBytes)"
scalar TcpSynAttack.交换机[2].eth[1].mac packetDropIncorrectlyReceived:count 0
attr interpolationmode none
attr source packetDropReasonIsIncorrectlyReceived(packetDropped)
attr title "packet drop: incorrectly received, count"
scalar TcpSynAttack.交换机[2].eth[1].mac packetDropIncorrectlyReceived:sum(packetBytes) 0
attr interpolationmode none
attr source packetDropReasonIsIncorrectlyReceived(packetDropped)
attr title "packet drop: incorrectly received, sum(packetBytes)"
scalar TcpSynAttack.交换机[2].eth[1].mac packetDropInterfaceDown:count 0
attr interpolationmode none
attr source packetDropReasonIsInterfaceDown(packetDropped)
attr title "packet drop: interface down, count"
scalar TcpSynAttack.交换机[2].eth[1].mac packetDropInterfaceDown:sum(packetBytes) 0
attr interpolationmode none
attr source packetDropReasonIsInterfaceDown(packetDropped)
attr title "packet drop: interface down, sum(packetBytes)"
scalar TcpSynAttack.交换机[2].eth[1].mac packetDropNotAddressedToUs:count 0
attr interpolationmode none
attr source packetDropReasonIsNotAddressedToUs(packetDropped)
attr title "packet drop: not addressed to us, count"
scalar TcpSynAttack.交换机[2].eth[1].mac packetDropNotAddressedToUs:sum(packetBytes) 0
attr interpolationmode none
attr source packetDropReasonIsNotAddressedToUs(packetDropped)
attr title "packet drop: not addressed to us, sum(packetBytes)"
scalar TcpSynAttack.交换机[2].eth[2].mac.queue packetPopped:count 575
attr interpolationmode none
attr title "packet popped, count"
scalar TcpSynAttack.交换机[2].eth[2].mac.queue packetPopped:sum(packetBytes) 36800
attr interpolationmode none
attr title "packet popped, sum(packetBytes)"
statistic TcpSynAttack.交换机[2].eth[2].mac.queue queueingTime:histogram
field count 575
field mean 0
field stddev 0
field min 0
field max 0
field sum 0
field sqrsum 0
attr interpolationmode none
attr source queueingTime(packetPopped)
attr title "queueing times, histogram"
attr unit s
bin	-inf	0
bin	-0.5	0
bin	-0.48	0
bin	-0.46	0
bin	-0.44	0
bin	-0.42	0
bin	-0.4	0
bin	-0.38	0
bin	-0.36	0
bin	-0.34	0
bin	-0.32	0
bin	-0.3	0
bin	-0.28	0
bin	-0.26	0
bin	-0.24	0
bin	-0.22	0
bin	-0.2	0
bin	-0.18	0
bin	-0.16	0
bin	-0.14	0
bin	-0.12	0
bin	-0.1	0
bin	-0.08	0
bin	-0.06	0
bin	-0.04	0
bin	-0.02	0
bin	0	575
bin	0.02	0
bin	0.04	0
bin	0.06	0
bin	0.08	0
bin	0.1	0
bin	0.12	0
bin	0.14	0
bin	0.16	0
bin	0.18	0
bin	0.2	0
bin	0.22	0
bin	0.24	0
bin	0.26	0
bin	0.28	0
bin	0.3	0
bin	0.32	0
bin	0.34	0
bin	0.36	0
bin	0.38	0
bin	0.4	0
bin	0.42	0
bin	0.44	0
bin	0.46	0
bin	0.48	0
bin	0.5	0
scalar TcpSynAttack.交换机[2].eth[2].mac.queue queueLength:max 1
attr interpolationmode sample-hold
attr source "count(packetPushed) - count(packetPopped) - count(packetRemoved) - count(packetDropped)"
attr title "queue length, max"
scalar TcpSynAttack.交换机[2].eth[2].mac.queue queueLength:timeavg 0
attr interpolationmode sample-hold
attr source "count(packetPushed) - count(packetPopped) - count(packetRemoved) - count(packetDropped)"
attr title "queue length, timeavg"
scalar TcpSynAttack.交换机[2].eth[2].mac.queue packetPushed:count 575
attr interpolationmode none
attr title "packet pushed, count"
scalar TcpSynAttack.交换机[2].eth[2].mac.queue packetPushed:sum(packetBytes) 36800
attr interpolationmode none
attr title "packet pushed, sum(packetBytes)"
scalar TcpSynAttack.交换机[2].eth[2].mac.queue packetDropQueueOverflow:count 0
attr interpolationmode none
attr source packetDropReasonIsQueueOverflow(packetDropped)
attr title "packet drops: queue overflow, count"
scalar TcpSynAttack.交换机[2].eth[2].mac.queue packetDropQueueOverflow:sum(packetBytes) 0
attr interpolationmode none
attr source packetDropReasonIsQueueOverflow(packetDropped)
attr title "packet drops: queue overflow, sum(packetBytes)"
scalar TcpSynAttack.交换机[2].eth[2].mac.queue packetRemoved:count 0
attr interpolationmode none
attr title "packets removed, count"
scalar TcpSynAttack.交换机[2].eth[2].mac.queue packetRemoved:sum(packetBytes) 0
attr interpolationmode none
attr title "packets removed, sum(packetBytes)"
scalar TcpSynAttack.交换机[2].eth[2].mac "simulated time" 451
scalar TcpSynAttack.交换机[2].eth[2].mac full-duplex 1
scalar TcpSynAttack.交换机[2].eth[2].mac "frames/sec sent" 1.2749445676275
scalar TcpSynAttack.交换机[2].eth[2].mac "frames/sec rcvd" 0.70731707317073
scalar TcpSynAttack.交换机[2].eth[2].mac "bits/sec sent" 652.77161862528
scalar TcpSynAttack.交换机[2].eth[2].mac "bits/sec rcvd" 362.14634146341
scalar TcpSynAttack.交换机[2].eth[2].mac "rx channel idle (%)" 99.959258536585
scalar TcpSynAttack.交换机[2].eth[2].mac "rx channel utilization (%)" 0.040741463414634
scalar TcpSynAttack.交换机[2].eth[2].mac "rx channel collision (%)" 0
scalar TcpSynAttack.交换机[2].eth[2].mac collisions 0
scalar TcpSynAttack.交换机[2].eth[2].mac backoffs 0
scalar TcpSynAttack.交换机[2].eth[2].mac rxPausePkUnits:count 0
attr interpolationmode none
attr title "pause units received, count"
scalar TcpSynAttack.交换机[2].eth[2].mac rxPausePkUnits:sum 0
attr interpolationmode none
attr title "pause units received, sum"
scalar TcpSynAttack.交换机[2].eth[2].mac txPausePkUnits:count 0
attr interpolationmode none
attr title "pause units sent, count"
scalar TcpSynAttack.交换机[2].eth[2].mac txPausePkUnits:sum 0
attr interpolationmode none
attr title "pause units sent, sum"
scalar TcpSynAttack.交换机[2].eth[2].mac rxPkOk:count 319
attr interpolationmode none
attr source rxPkOk
attr title "packets received OK, count"
scalar TcpSynAttack.交换机[2].eth[2].mac rxPkOk:sum(packetBytes) 20416
attr interpolationmode none
attr source rxPkOk
attr title "packets received OK, sum(packetBytes)"
scalar TcpSynAttack.交换机[2].eth[2].mac backoffSlotsGenerated:count 0
attr interpolationmode none
attr title "backoff, count"
scalar TcpSynAttack.交换机[2].eth[2].mac collision:count 0
attr interpolationmode none
attr title "collision, count"
scalar TcpSynAttack.交换机[2].eth[2].mac txPk:count 575
attr interpolationmode none
attr source packetSentToLower
attr title "packets transmitted, count"
scalar TcpSynAttack.交换机[2].eth[2].mac txPk:sum(packetBytes) 36800
attr interpolationmode none
attr source packetSentToLower
attr title "packets transmitted, sum(packetBytes)"
scalar TcpSynAttack.交换机[2].eth[2].mac packetReceivedFromUpper:count 575
attr interpolationmode none
attr source packetReceivedFromUpper
attr title "packet bytes from higher layer, count"
scalar TcpSynAttack.交换机[2].eth[2].mac packetReceivedFromUpper:sum(packetBytes) 36800
attr interpolationmode none
attr source packetReceivedFromUpper
attr title "packet bytes from higher layer, sum(packetBytes)"
scalar TcpSynAttack.交换机[2].eth[2].mac passedUpPk:count 319
attr interpolationmode none
attr source packetSentToUpper
attr title "packets passed to higher layer, count"
scalar TcpSynAttack.交换机[2].eth[2].mac passedUpPk:sum(packetBytes) 20416
attr interpolationmode none
attr source packetSentToUpper
attr title "packets passed to higher layer, sum(packetBytes)"
scalar TcpSynAttack.交换机[2].eth[2].mac packetDropIncorrectlyReceived:count 0
attr interpolationmode none
attr source packetDropReasonIsIncorrectlyReceived(packetDropped)
attr title "packet drop: incorrectly received, count"
scalar TcpSynAttack.交换机[2].eth[2].mac packetDropIncorrectlyReceived:sum(packetBytes) 0
attr interpolationmode none
attr source packetDropReasonIsIncorrectlyReceived(packetDropped)
attr title "packet drop: incorrectly received, sum(packetBytes)"
scalar TcpSynAttack.交换机[2].eth[2].mac packetDropInterfaceDown:count 0
attr interpolationmode none
attr source packetDropReasonIsInterfaceDown(packetDropped)
attr title "packet drop: interface down, count"
scalar TcpSynAttack.交换机[2].eth[2].mac packetDropInterfaceDown:sum(packetBytes) 0
attr interpolationmode none
attr source packetDropReasonIsInterfaceDown(packetDropped)
attr title "packet drop: interface down, sum(packetBytes)"
scalar TcpSynAttack.交换机[2].eth[2].mac packetDropNotAddressedToUs:count 0
attr interpolationmode none
attr source packetDropReasonIsNotAddressedToUs(packetDropped)
attr title "packet drop: not addressed to us, count"
scalar TcpSynAttack.交换机[2].eth[2].mac packetDropNotAddressedToUs:sum(packetBytes) 0
attr interpolationmode none
attr source packetDropReasonIsNotAddressedToUs(packetDropped)
attr title "packet drop: not addressed to us, sum(packetBytes)"
scalar TcpSynAttack.交换机[2].encap pauseSent:count 0
attr title "pause sent, count"
scalar TcpSynAttack.交换机[2].encap pauseSent:sum 0
attr title "pause sent, sum"
scalar TcpSynAttack.交换机[2].encap decapPk:count 0
attr interpolationmode none
attr source decapPk
attr title "packets decapsulated, count"
scalar TcpSynAttack.交换机[2].encap decapPk:sum(packetBytes) 0
attr interpolationmode none
attr source decapPk
attr title "packets decapsulated, sum(packetBytes)"
scalar TcpSynAttack.交换机[2].encap encapPk:count 0
attr interpolationmode none
attr source encapPk
attr title "packets encapsulated, count"
scalar TcpSynAttack.交换机[2].encap encapPk:sum(packetBytes) 0
attr interpolationmode none
attr source encapPk
attr title "packets encapsulated, sum(packetBytes)"
scalar TcpSynAttack.路由器[0].lo[0].lo rcvdPkFromHl:count 0
attr interpolationmode none
attr source packetReceivedFromUpper
attr title "packets received from higher layer, count"
scalar TcpSynAttack.路由器[0].lo[0].lo rcvdPkFromHl:sum(packetBytes) 0
attr interpolationmode none
attr source packetReceivedFromUpper
attr title "packets received from higher layer, sum(packetBytes)"
scalar TcpSynAttack.路由器[0].lo[0].lo passedUpPk:count 0
attr interpolationmode none
attr source packetSentToUpper
attr title "packets passed to higher layer, count"
scalar TcpSynAttack.路由器[0].lo[0].lo passedUpPk:sum(packetBytes) 0
attr interpolationmode none
attr source packetSentToUpper
attr title "packets passed to higher layer, sum(packetBytes)"
scalar TcpSynAttack.路由器[0].ppp[0].ppp.queue packetPopped:count 630
attr interpolationmode none
attr title "packet popped, count"
scalar TcpSynAttack.路由器[0].ppp[0].ppp.queue packetPopped:sum(packetBytes) 27720
attr interpolationmode none
attr title "packet popped, sum(packetBytes)"
statistic TcpSynAttack.路由器[0].ppp[0].ppp.queue queueingTime:histogram
field count 630
field mean 0.003048
field stddev 0.0025902283293355
field min 0
field max 0.009072
field sum 1.92024
field sqrsum 0.0100730304
attr interpolationmode none
attr source queueingTime(packetPopped)
attr title "queueing times, histogram"
attr unit s
bin	-inf	0
bin	0	60
bin	0.0002	25
bin	0.0004	45
bin	0.0006	20
bin	0.0008	20
bin	0.001	35
bin	0.0012	15
bin	0.0014	30
bin	0.0016	15
bin	0.0018	15
bin	0.002	30
bin	0.0022	10
bin	0.0024	20
bin	0.0026	10
bin	0.0028	10
bin	0.003	20
bin	0.0032	10
bin	0.0034	10
bin	0.0036	20
bin	0.0038	10
bin	0.004	20
bin	0.0042	10
bin	0.0044	10
bin	0.0046	10
bin	0.0048	5
bin	0.005	10
bin	0.0052	5
bin	0.0054	5
bin	0.0056	10
bin	0.0058	5
bin	0.006	10
bin	0.0062	5
bin	0.0064	5
bin	0.0066	10
bin	0.0068	5
bin	0.007	5
bin	0.0072	10
bin	0.0074	5
bin	0.0076	10
bin	0.0078	5
bin	0.008	5
bin	0.0082	10
bin	0.0084	5
bin	0.0086	10
bin	0.0088	5
bin	0.009	5
bin	0.0092	0
scalar TcpSynAttack.路由器[0].ppp[0].ppp.queue queueLength:max 12
attr interpolationmode sample-hold
attr source "count(packetPushed) - count(packetPopped) - count(packetRemoved) - count(packetDropped)"
attr title "queue length, max"
scalar TcpSynAttack.路由器[0].ppp[0].ppp.queue queueLength:timeavg 0.0042672327780374
attr interpolationmode sample-hold
attr source "count(packetPushed) - count(packetPopped) - count(packetRemoved) - count(packetDropped)"
attr title "queue length, timeavg"
scalar TcpSynAttack.路由器[0].ppp[0].ppp.queue packetPushed:count 630
attr interpolationmode none
attr title "packet pushed, count"
scalar TcpSynAttack.路由器[0].ppp[0].ppp.queue packetPushed:sum(packetBytes) 27720
attr interpolationmode none
attr title "packet pushed, sum(packetBytes)"
scalar TcpSynAttack.路由器[0].ppp[0].ppp.queue packetDropQueueOverflow:count 0
attr interpolationmode none
attr source packetDropReasonIsQueueOverflow(packetDropped)
attr title "packet drops: queue overflow, count"
scalar TcpSynAttack.路由器[0].ppp[0].ppp.queue packetDropQueueOverflow:sum(packetBytes) 0
attr interpolationmode none
attr source packetDropReasonIsQueueOverflow(packetDropped)
attr title "packet drops: queue overflow, sum(packetBytes)"
scalar TcpSynAttack.路由器[0].ppp[0].ppp.queue packetRemoved:count 0
attr interpolationmode none
attr title "packets removed, count"
scalar TcpSynAttack.路由器[0].ppp[0].ppp.queue packetRemoved:sum(packetBytes) 0
attr interpolationmode none
attr title "packets removed, sum(packetBytes)"
scalar TcpSynAttack.路由器[0].ppp[0].ppp transmissionState:timeavg 0.001139866962306
attr interpolationmode sample-hold
attr source transmissionStateChanged
attr title "tx state, timeavg"
scalar TcpSynAttack.路由器[0].ppp[0].ppp rxPkOk:count 1134
attr interpolationmode none
attr source rxPkOk
attr title "packets received OK, count"
scalar TcpSynAttack.路由器[0].ppp[0].ppp rxPkOk:sum(packetBytes) 55818
attr interpolationmode none
attr source rxPkOk
attr title "packets received OK, sum(packetBytes)"
scalar TcpSynAttack.路由器[0].ppp[0].ppp txPk:count 630
attr interpolationmode none
attr source packetSentToLower
attr title "packets transmitted, count"
scalar TcpSynAttack.路由器[0].ppp[0].ppp txPk:sum(packetBytes) 32130
attr interpolationmode none
attr source packetSentToLower
attr title "packets transmitted, sum(packetBytes)"
scalar TcpSynAttack.路由器[0].ppp[0].ppp rcvdPkFromHl:count 630
attr interpolationmode none
attr source packetReceivedFromUpper
attr title "packets received from higher layer, count"
scalar TcpSynAttack.路由器[0].ppp[0].ppp rcvdPkFromHl:sum(packetBytes) 27720
attr interpolationmode none
attr source packetReceivedFromUpper
attr title "packets received from higher layer, sum(packetBytes)"
scalar TcpSynAttack.路由器[0].ppp[0].ppp passedUpPk:count 1134
attr interpolationmode none
attr source packetSentToUpper
attr title "packets passed to higher layer, count"
scalar TcpSynAttack.路由器[0].ppp[0].ppp passedUpPk:sum(packetBytes) 47880
attr interpolationmode none
attr source packetSentToUpper
attr title "packets passed to higher layer, sum(packetBytes)"
scalar TcpSynAttack.路由器[0].ppp[0].ppp packetDropIncorrectlyReceived:count 0
attr interpolationmode none
[...]
attr title "packet drop: interface down, sum(packetBytes)"
scalar TcpSynAttack.被控主机[5].eth[0].mac packetDropNotAddressedToUs:count 0
attr interpolationmode none
attr source packetDropReasonIsNotAddressedToUs(packetDropped)
attr title "packet drop: not addressed to us, count"
scalar TcpSynAttack.被控主机[5].eth[0].mac packetDropNotAddressedToUs:sum(packetBytes) 0
attr interpolationmode none
attr source packetDropReasonIsNotAddressedToUs(packetDropped)
attr title "packet drop: not addressed to us, sum(packetBytes)"
scalar TcpSynAttack.被控主机[5].eth[0].encap pauseSent:count 0
attr title "pause sent, count"
scalar TcpSynAttack.被控主机[5].eth[0].encap pauseSent:sum 0
attr title "pause sent, sum"
scalar TcpSynAttack.被控主机[5].eth[0].encap decapPk:count 575
attr interpolationmode none
attr source decapPk
attr title "packets decapsulated, count"
scalar TcpSynAttack.被控主机[5].eth[0].encap decapPk:sum(packetBytes) 26450
attr interpolationmode none
attr source decapPk
attr title "packets decapsulated, sum(packetBytes)"
scalar TcpSynAttack.被控主机[5].eth[0].encap encapPk:count 319
attr interpolationmode none
attr source encapPk
attr title "packets encapsulated, count"
scalar TcpSynAttack.被控主机[5].eth[0].encap encapPk:sum(packetBytes) 13972
attr interpolationmode none
attr source encapPk
attr title "packets encapsulated, sum(packetBytes)"
scalar TcpSynAttack.被控主机[5].ipv4.ip packetDropAddressResolutionFailed:count 0
attr interpolationmode none
attr source packetDropReasonIsAddressResolutionFailed(packetDropped)
attr title "packet drop: address resolution failed, count"
scalar TcpSynAttack.被控主机[5].ipv4.ip packetDropAddressResolutionFailed:sum(packetBytes) 0
attr interpolationmode none
attr source packetDropReasonIsAddressResolutionFailed(packetDropped)
attr title "packet drop: address resolution failed, sum(packetBytes)"
scalar TcpSynAttack.被控主机[5].ipv4.ip packetDropHopLimitReached:count 0
attr interpolationmode none
attr source packetDropReasonIsHopLimitReached(packetDropped)
attr title "packet drop: hop limit reached, count"
scalar TcpSynAttack.被控主机[5].ipv4.ip packetDropHopLimitReached:sum(packetBytes) 0
attr interpolationmode none
attr source packetDropReasonIsHopLimitReached(packetDropped)
attr title "packet drop: hop limit reached, sum(packetBytes)"
scalar TcpSynAttack.被控主机[5].ipv4.ip packetDropForwardingDisabled:count 0
attr interpolationmode none
attr source packetDropReasonIsForwardingDisabled(packetDropped)
attr title "packet drop: forwarding disabled, count"
scalar TcpSynAttack.被控主机[5].ipv4.ip packetDropForwardingDisabled:sum(packetBytes) 0
attr interpolationmode none
attr source packetDropReasonIsForwardingDisabled(packetDropped)
attr title "packet drop: forwarding disabled, sum(packetBytes)"
scalar TcpSynAttack.被控主机[5].ipv4.ip packetDropNoInterfaceFound:count 0
attr interpolationmode none
attr source packetDropReasonIsNoInterfaceFound(packetDropped)
attr title "packet drop: no interface found, count"
scalar TcpSynAttack.被控主机[5].ipv4.ip packetDropNoInterfaceFound:sum(packetBytes) 0
attr interpolationmode none
attr source packetDropReasonIsNoInterfaceFound(packetDropped)
attr title "packet drop: no interface found, sum(packetBytes)"
scalar TcpSynAttack.被控主机[5].ipv4.ip packetDropNoRouteFound:count 0
attr interpolationmode none
attr source packetDropReasonIsNoRouteFound(packetDropped)
attr title "packet drop: no route found, count"
scalar TcpSynAttack.被控主机[5].ipv4.ip packetDropNoRouteFound:sum(packetBytes) 0
attr interpolationmode none
attr source packetDropReasonIsNoRouteFound(packetDropped)
attr title "packet drop: no route found, sum(packetBytes)"
scalar TcpSynAttack.被控主机[5].ipv4.ip packetDropUndefined:count 0
attr interpolationmode none
attr source packetDropReasonIsUndefined(packetDropped)
attr title "packet drop: undefined, count"
scalar TcpSynAttack.被控主机[5].ipv4.ip packetDropUndefined:sum(packetBytes) 0
attr interpolationmode none
attr source packetDropReasonIsUndefined(packetDropped)
attr title "packet drop: undefined, sum(packetBytes)"
scalar TcpSynAttack.被控主机[5].ipv4.arp arpResolutionFailed:count 0
attr title "ARP failed resolutions, count"
scalar TcpSynAttack.被控主机[5].ipv4.arp arpResolutionCompleted:count 5
attr title "ARP completed resolutions, count"
scalar TcpSynAttack.被控主机[5].ipv4.arp arpResolutionInitiated:count 3
attr title "ARP initiated resolutions, count"
scalar TcpSynAttack.被控主机[5].ipv4.arp arpReplySent:count 1
attr source arpReplySent
attr title "ARP replies sent, count"
scalar TcpSynAttack.被控主机[5].ipv4.arp arpReplySent:sum(packetBytes) 28
attr source arpReplySent
attr title "ARP replies sent, sum(packetBytes)"
scalar TcpSynAttack.被控主机[5].ipv4.arp arpRequestSent:count 3
attr source arpRequestSent
attr title "ARP request sent, count"
scalar TcpSynAttack.被控主机[5].ipv4.arp arpRequestSent:sum(packetBytes) 84
attr source arpRequestSent
attr title "ARP request sent, sum(packetBytes)"
scalar TcpSynAttack.被控主机[5].udp packetReceived:count 0
attr interpolationmode none
attr source packetReceived
attr title "packets received, count"
scalar TcpSynAttack.被控主机[5].udp packetReceived:sum(packetBytes) 0
attr interpolationmode none
attr source packetReceived
attr title "packets received, sum(packetBytes)"
scalar TcpSynAttack.被控主机[5].udp packetSent:count 0
attr interpolationmode none
attr source packetSent
attr title "packets sent, count"
scalar TcpSynAttack.被控主机[5].udp packetSent:sum(packetBytes) 0
attr interpolationmode none
attr source packetSent
attr title "packets sent, sum(packetBytes)"
scalar TcpSynAttack.被控主机[5].udp passedUpPk:count 0
attr interpolationmode none
attr source packetSentToUpper
attr title "packets passed up, count"
scalar TcpSynAttack.被控主机[5].udp droppedPkWrongPort:count 0
attr interpolationmode none
attr source packetDropReasonIsNoPortFound(packetDropped)
attr title "packets dropped (wrong port), count"
scalar TcpSynAttack.被控主机[5].udp droppedPkBadChecksum:count 0
attr interpolationmode none
attr source packetDropReasonIsIncorrectlyReceived(packetDropped)
attr title "packets dropped (checksum error), count"
scalar TcpSynAttack.服务器.lo[0].lo rcvdPkFromHl:count 0
attr interpolationmode none
attr source packetReceivedFromUpper
attr title "packets received from higher layer, count"
scalar TcpSynAttack.服务器.lo[0].lo rcvdPkFromHl:sum(packetBytes) 0
attr interpolationmode none
attr source packetReceivedFromUpper
attr title "packets received from higher layer, sum(packetBytes)"
scalar TcpSynAttack.服务器.lo[0].lo passedUpPk:count 0
attr interpolationmode none
attr source packetSentToUpper
attr title "packets passed to higher layer, count"
scalar TcpSynAttack.服务器.lo[0].lo passedUpPk:sum(packetBytes) 0
attr interpolationmode none
attr source packetSentToUpper
attr title "packets passed to higher layer, sum(packetBytes)"
scalar TcpSynAttack.服务器.eth[0].mac.queue packetPopped:count 3416
attr interpolationmode none
attr title "packet popped, count"
scalar TcpSynAttack.服务器.eth[0].mac.queue packetPopped:sum(packetBytes) 218624
attr interpolationmode none
attr title "packet popped, sum(packetBytes)"
statistic TcpSynAttack.服务器.eth[0].mac.queue queueingTime:histogram
field count 3416
field mean 0.037949247306792
field stddev 0.036406607571971
field min 0
field max 0.1260476
field sum 129.6346288
field sqrsum 9.4459178586372
attr interpolationmode none
attr source queueingTime(packetPopped)
attr title "queueing times, histogram"
attr unit s
bin	-inf	0
bin	0	595
bin	0.00256	174
bin	0.00512	159
bin	0.00768	137
bin	0.01024	124
bin	0.0128	97
bin	0.01536	104
bin	0.01792	88
bin	0.02048	92
bin	0.02304	92
bin	0.0256	74
bin	0.02816	96
bin	0.03072	88
bin	0.03328	64
bin	0.03584	64
bin	0.0384	52
bin	0.04096	64
bin	0.04352	64
bin	0.04608	60
bin	0.04864	64
bin	0.0512	64
bin	0.05376	52
bin	0.05632	64
bin	0.05888	60
bin	0.06144	64
bin	0.064	36
bin	0.06656	28
bin	0.06912	32
bin	0.07168	28
bin	0.07424	32
bin	0.0768	32
bin	0.07936	28
bin	0.08192	32
bin	0.08448	28
bin	0.08704	32
bin	0.0896	32
bin	0.09216	28
bin	0.09472	32
bin	0.09728	32
bin	0.09984	28
bin	0.1024	32
bin	0.10496	32
bin	0.10752	28
bin	0.11008	32
bin	0.11264	28
bin	0.1152	32
bin	0.11776	32
bin	0.12032	28
bin	0.12288	32
bin	0.12544	24
bin	0.128	0
scalar TcpSynAttack.服务器.eth[0].mac.queue queueLength:max 188
attr interpolationmode sample-hold
attr source "count(packetPushed) - count(packetPopped) - count(packetRemoved) - count(packetDropped)"
attr title "queue length, max"
scalar TcpSynAttack.服务器.eth[0].mac.queue queueLength:timeavg 0.28807769049581
attr interpolationmode sample-hold
attr source "count(packetPushed) - count(packetPopped) - count(packetRemoved) - count(packetDropped)"
attr title "queue length, timeavg"
scalar TcpSynAttack.服务器.eth[0].mac.queue packetPushed:count 3416
attr interpolationmode none
attr title "packet pushed, count"
scalar TcpSynAttack.服务器.eth[0].mac.queue packetPushed:sum(packetBytes) 218624
attr interpolationmode none
attr title "packet pushed, sum(packetBytes)"
scalar TcpSynAttack.服务器.eth[0].mac.queue packetDropQueueOverflow:count 0
attr interpolationmode none
attr source packetDropReasonIsQueueOverflow(packetDropped)
attr title "packet drops: queue overflow, count"
scalar TcpSynAttack.服务器.eth[0].mac.queue packetDropQueueOverflow:sum(packetBytes) 0
attr interpolationmode none
attr source packetDropReasonIsQueueOverflow(packetDropped)
attr title "packet drops: queue overflow, sum(packetBytes)"
scalar TcpSynAttack.服务器.eth[0].mac.queue packetRemoved:count 0
attr interpolationmode none
attr title "packets removed, count"
scalar TcpSynAttack.服务器.eth[0].mac.queue packetRemoved:sum(packetBytes) 0
attr interpolationmode none
attr title "packets removed, sum(packetBytes)"
scalar TcpSynAttack.服务器.eth[0].mac "simulated time" 451
scalar TcpSynAttack.服务器.eth[0].mac full-duplex 1
scalar TcpSynAttack.服务器.eth[0].mac "frames/sec sent" 7.5742793791574
scalar TcpSynAttack.服务器.eth[0].mac "frames/sec rcvd" 4.2217294900222
scalar TcpSynAttack.服务器.eth[0].mac "bits/sec sent" 3878.0310421286
scalar TcpSynAttack.服务器.eth[0].mac "bits/sec rcvd" 2161.5254988914
scalar TcpSynAttack.服务器.eth[0].mac "rx channel idle (%)" 100
scalar TcpSynAttack.服务器.eth[0].mac "rx channel utilization (%)" 0
scalar TcpSynAttack.服务器.eth[0].mac rxPausePkUnits:count 0
attr interpolationmode none
attr title "pause units received, count"
scalar TcpSynAttack.服务器.eth[0].mac rxPausePkUnits:sum 0
attr interpolationmode none
attr title "pause units received, sum"
scalar TcpSynAttack.服务器.eth[0].mac txPausePkUnits:count 0
attr interpolationmode none
attr title "pause units sent, count"
scalar TcpSynAttack.服务器.eth[0].mac txPausePkUnits:sum 0
attr interpolationmode none
attr title "pause units sent, sum"
scalar TcpSynAttack.服务器.eth[0].mac rxPkOk:count 1904
attr interpolationmode none
attr source rxPkOk
attr title "packets received OK, count"
scalar TcpSynAttack.服务器.eth[0].mac rxPkOk:sum(packetBytes) 121856
attr interpolationmode none
attr source rxPkOk
attr title "packets received OK, sum(packetBytes)"
scalar TcpSynAttack.服务器.eth[0].mac txPk:count 3416
attr interpolationmode none
attr source packetSentToLower
attr title "packets transmitted, count"
scalar TcpSynAttack.服务器.eth[0].mac txPk:sum(packetBytes) 218624
attr interpolationmode none
attr source packetSentToLower
attr title "packets transmitted, sum(packetBytes)"
scalar TcpSynAttack.服务器.eth[0].mac packetReceivedFromUpper:count 3416
attr interpolationmode none
attr source packetReceivedFromUpper
attr title "packet bytes from higher layer, count"
scalar TcpSynAttack.服务器.eth[0].mac packetReceivedFromUpper:sum(packetBytes) 205520
attr interpolationmode none
attr source packetReceivedFromUpper
attr title "packet bytes from higher layer, sum(packetBytes)"
scalar TcpSynAttack.服务器.eth[0].mac passedUpPk:count 1904
attr interpolationmode none
attr source packetSentToUpper
attr title "packets passed to higher layer, count"
scalar TcpSynAttack.服务器.eth[0].mac passedUpPk:sum(packetBytes) 121856
attr interpolationmode none
attr source packetSentToUpper
attr title "packets passed to higher layer, sum(packetBytes)"
scalar TcpSynAttack.服务器.eth[0].mac packetDropIncorrectlyReceived:count 0
attr interpolationmode none
attr source packetDropReasonIsIncorrectlyReceived(packetDropped)
attr title "packet drop: incorrectly received, count"
scalar TcpSynAttack.服务器.eth[0].mac packetDropIncorrectlyReceived:sum(packetBytes) 0
attr interpolationmode none
attr source packetDropReasonIsIncorrectlyReceived(packetDropped)
attr title "packet drop: incorrectly received, sum(packetBytes)"
scalar TcpSynAttack.服务器.eth[0].mac packetDropInterfaceDown:count 0
attr interpolationmode none
attr source packetDropReasonIsInterfaceDown(packetDropped)
attr title "packet drop: interface down, count"
scalar TcpSynAttack.服务器.eth[0].mac packetDropInterfaceDown:sum(packetBytes) 0
attr interpolationmode none
attr source packetDropReasonIsInterfaceDown(packetDropped)
attr title "packet drop: interface down, sum(packetBytes)"
scalar TcpSynAttack.服务器.eth[0].mac packetDropNotAddressedToUs:count 0
attr interpolationmode none
attr source packetDropReasonIsNotAddressedToUs(packetDropped)
attr title "packet drop: not addressed to us, count"
scalar TcpSynAttack.服务器.eth[0].mac packetDropNotAddressedToUs:sum(packetBytes) 0
attr interpolationmode none
attr source packetDropReasonIsNotAddressedToUs(packetDropped)
attr title "packet drop: not addressed to us, sum(packetBytes)"
scalar TcpSynAttack.服务器.eth[0].encap pauseSent:count 0
attr title "pause sent, count"
scalar TcpSynAttack.服务器.eth[0].encap pauseSent:sum 0
attr title "pause sent, sum"
scalar TcpSynAttack.服务器.eth[0].encap decapPk:count 1904
attr interpolationmode none
attr source decapPk
attr title "packets decapsulated, count"
scalar TcpSynAttack.服务器.eth[0].encap decapPk:sum(packetBytes) 87584
attr interpolationmode none
attr source decapPk
attr title "packets decapsulated, sum(packetBytes)"
scalar TcpSynAttack.服务器.eth[0].encap encapPk:count 3416
attr interpolationmode none
attr source encapPk
attr title "packets encapsulated, count"
scalar TcpSynAttack.服务器.eth[0].encap encapPk:sum(packetBytes) 144032
attr interpolationmode none
attr source encapPk
attr title "packets encapsulated, sum(packetBytes)"
scalar TcpSynAttack.服务器.ipv4.ip packetDropAddressResolutionFailed:count 0
attr interpolationmode none
attr source packetDropReasonIsAddressResolutionFailed(packetDropped)
attr title "packet drop: address resolution failed, count"
scalar TcpSynAttack.服务器.ipv4.ip packetDropAddressResolutionFailed:sum(packetBytes) 0
attr interpolationmode none
attr source packetDropReasonIsAddressResolutionFailed(packetDropped)
attr title "packet drop: address resolution failed, sum(packetBytes)"
scalar TcpSynAttack.服务器.ipv4.ip packetDropHopLimitReached:count 0
attr interpolationmode none
attr source packetDropReasonIsHopLimitReached(packetDropped)
attr title "packet drop: hop limit reached, count"
scalar TcpSynAttack.服务器.ipv4.ip packetDropHopLimitReached:sum(packetBytes) 0
attr interpolationmode none
attr source packetDropReasonIsHopLimitReached(packetDropped)
attr title "packet drop: hop limit reached, sum(packetBytes)"
scalar TcpSynAttack.服务器.ipv4.ip packetDropForwardingDisabled:count 0
attr interpolationmode none
attr source packetDropReasonIsForwardingDisabled(packetDropped)
attr title "packet drop: forwarding disabled, count"
scalar TcpSynAttack.服务器.ipv4.ip packetDropForwardingDisabled:sum(packetBytes) 0
attr interpolationmode none
attr source packetDropReasonIsForwardingDisabled(packetDropped)
attr title "packet drop: forwarding disabled, sum(packetBytes)"
scalar TcpSynAttack.服务器.ipv4.ip packetDropNoInterfaceFound:count 0
attr interpolationmode none
attr source packetDropReasonIsNoInterfaceFound(packetDropped)
attr title "packet drop: no interface found, count"
scalar TcpSynAttack.服务器.ipv4.ip packetDropNoInterfaceFound:sum(packetBytes) 0
attr interpolationmode none
attr source packetDropReasonIsNoInterfaceFound(packetDropped)
attr title "packet drop: no interface found, sum(packetBytes)"
scalar TcpSynAttack.服务器.ipv4.ip packetDropNoRouteFound:count 0
attr interpolationmode none
attr source packetDropReasonIsNoRouteFound(packetDropped)
attr title "packet drop: no route found, count"
scalar TcpSynAttack.服务器.ipv4.ip packetDropNoRouteFound:sum(packetBytes) 0
attr interpolationmode none
attr source packetDropReasonIsNoRouteFound(packetDropped)
attr title "packet drop: no route found, sum(packetBytes)"
scalar TcpSynAttack.服务器.ipv4.ip packetDropUndefined:count 0
attr interpolationmode none
attr source packetDropReasonIsUndefined(packetDropped)
attr title "packet drop: undefined, count"
scalar TcpSynAttack.服务器.ipv4.ip packetDropUndefined:sum(packetBytes) 0
attr interpolationmode none
attr source packetDropReasonIsUndefined(packetDropped)
attr title "packet drop: undefined, sum(packetBytes)"
scalar TcpSynAttack.服务器.ipv4.arp arpResolutionFailed:count 0
attr title "ARP failed resolutions, count"
scalar TcpSynAttack.服务器.ipv4.arp arpResolutionCompleted:count 14
attr title "ARP completed resolutions, count"
scalar TcpSynAttack.服务器.ipv4.arp arpResolutionInitiated:count 6
attr title "ARP initiated resolutions, count"
scalar TcpSynAttack.服务器.ipv4.arp arpReplySent:count 8
attr source arpReplySent
attr title "ARP replies sent, count"
scalar TcpSynAttack.服务器.ipv4.arp arpReplySent:sum(packetBytes) 224
attr source arpReplySent
attr title "ARP replies sent, sum(packetBytes)"
scalar TcpSynAttack.服务器.ipv4.arp arpRequestSent:count 6
attr source arpRequestSent
attr title "ARP request sent, count"
scalar TcpSynAttack.服务器.ipv4.arp arpRequestSent:sum(packetBytes) 168
attr source arpRequestSent
attr title "ARP request sent, sum(packetBytes)"
scalar TcpSynAttack.服务器.udp packetReceived:count 0
attr interpolationmode none
attr source packetReceived
attr title "packets received, count"
scalar TcpSynAttack.服务器.udp packetReceived:sum(packetBytes) 0
attr interpolationmode none
attr source packetReceived
attr title "packets received, sum(packetBytes)"
scalar TcpSynAttack.服务器.udp packetSent:count 0
attr interpolationmode none
attr source packetSent
attr title "packets sent, count"
scalar TcpSynAttack.服务器.udp packetSent:sum(packetBytes) 0
attr interpolationmode none
attr source packetSent
attr title "packets sent, sum(packetBytes)"
scalar TcpSynAttack.服务器.udp passedUpPk:count 0
attr interpolationmode none
attr source packetSentToUpper
attr title "packets passed up, count"
scalar TcpSynAttack.服务器.udp droppedPkWrongPort:count 0
attr interpolationmode none
attr source packetDropReasonIsNoPortFound(packetDropped)
attr title "packets dropped (wrong port), count"
scalar TcpSynAttack.服务器.udp droppedPkBadChecksum:count 0
attr interpolationmode none
attr source packetDropReasonIsIncorrectlyReceived(packetDropped)
attr title "packets dropped (checksum error), count"
scalar TcpSynAttack.服务器.app[0] packetReceived:count 0
attr interpolationmode none
attr source packetReceived
attr title "packets received, count"
scalar TcpSynAttack.服务器.app[0] packetReceived:sum(packetBytes) 0
attr interpolationmode none
attr source packetReceived
attr title "packets received, sum(packetBytes)"
statistic TcpSynAttack.服务器.app[0] endToEndDelay:histogram
field count 0
field mean -nan
field stddev nan
field min nan
field max nan
field sum 0
field sqrsum 0
attr interpolationmode none
attr source dataAge(packetReceived)
attr title "end-to-end delay, histogram"
attr unit s
bin	-inf	0
bin	0	0
bin	1	0
statistic TcpSynAttack.服务器.app[0] endToEndDelay:weightedHistogram
field count 0
field mean -nan
field stddev nan
field min nan
field max nan
field weights 0
field weightedSum 0
field sqrSumWeights 0
field weightedSqrSum 0
attr interpolationmode none
attr source dataAge(packetReceived)
attr title "end-to-end delay, weightedHistogram"
attr unit s
bin	-inf	0
bin	0	0
bin	1	0
scalar TcpSynAttack.服务器.app[0] packetSent:count 0
attr interpolationmode none
attr source packetSent
attr title "packets sent, count"
scalar TcpSynAttack.服务器.app[0] packetSent:sum(packetBytes) 0
attr interpolationmode none
attr source packetSent
attr title "packets sent, sum(packetBytes)"

