file 84522 1650253666                                           
version 2
run General-0-20220418-11:27:55-79432
attr configname General
attr datetime 20220418-11:27:55
attr experiment General
attr inifile TcpSynAttack.ini
attr iterationvars ""
attr iterationvarsf ""
attr measurement ""
attr network TcpSynAttack
attr processid 79432
attr repetition 0
attr replication #0
attr resultdir results
attr runnumber 0
attr seedset 0
param *.numSubnet*Attackers 2
param *.总线[0].positions "\"40\""
param *.总线[1].positions "\"33\""
param *.被控主机[*].numApps 1
param *.被控主机[*].app[0].typename "\"DSAK_TcpSynAttackApp\""
param *.被控主机[*].app[0].connectAddress "\"服务器\""
param *.被控主机[*].app[0].connectPort 1000
param *.服务器.numApps 1
param *.服务器.app[0].typename "\"TcpGenericServerApp\""
param *.服务器.app[0].localPort 1000
param *.被控主机[2..].eth[0].csmacdSupport true
param *.服务器.eth[0].csmacdSupport true
param *.路由器[1..2].eth[0].csmacdSupport true

vector 0 TcpSynAttack.路由器[0].ppp[0].ppp transmissionState:vector ETV
attr interpolationmode sample-hold
attr source transmissionStateChanged
attr title "tx state, vector"
vector 1 TcpSynAttack.路由器[0].ppp[1].ppp transmissionState:vector ETV
attr interpolationmode sample-hold
attr source transmissionStateChanged
attr title "tx state, vector"
vector 2 TcpSynAttack.路由器[1].ppp[0].ppp transmissionState:vector ETV
attr interpolationmode sample-hold
attr source transmissionStateChanged
attr title "tx state, vector"
vector 3 TcpSynAttack.路由器[1].ppp[1].ppp transmissionState:vector ETV
attr interpolationmode sample-hold
attr source transmissionStateChanged
attr title "tx state, vector"
vector 4 TcpSynAttack.路由器[2].ppp[0].ppp transmissionState:vector ETV
attr interpolationmode sample-hold
attr source transmissionStateChanged
attr title "tx state, vector"
vector 5 TcpSynAttack.路由器[2].ppp[1].ppp transmissionState:vector ETV
attr interpolationmode sample-hold
attr source transmissionStateChanged
attr title "tx state, vector"
vector 6 TcpSynAttack.被控主机[0].tcp.conn-13 tcpRcvQueueBytes:vector ETV
attr interpolationmode sample-hold
vector 7 TcpSynAttack.被控主机[0].tcp.conn-13 rcvAdv:vector ETV
attr interpolationmode sample-hold
vector 8 TcpSynAttack.被控主机[0].tcp.conn-13 rcvWnd:vector ETV
attr interpolationmode sample-hold
vector 9 TcpSynAttack.被控主机[0].tcp.conn-13 sndAck:vector ETV
attr interpolationmode sample-hold
vector 10 TcpSynAttack.被控主机[1].tcp.conn-14 tcpRcvQueueBytes:vector ETV
attr interpolationmode sample-hold
vector 11 TcpSynAttack.被控主机[1].tcp.conn-14 rcvAdv:vector ETV
attr interpolationmode sample-hold
vector 12 TcpSynAttack.被控主机[1].tcp.conn-14 rcvWnd:vector ETV
attr interpolationmode sample-hold
vector 13 TcpSynAttack.被控主机[1].tcp.conn-14 sndAck:vector ETV
attr interpolationmode sample-hold
vector 14 TcpSynAttack.被控主机[2].tcp.conn-15 tcpRcvQueueBytes:vector ETV
attr interpolationmode sample-hold
vector 15 TcpSynAttack.被控主机[2].tcp.conn-15 rcvAdv:vector ETV
attr interpolationmode sample-hold
vector 16 TcpSynAttack.被控主机[2].tcp.conn-15 rcvWnd:vector ETV
attr interpolationmode sample-hold
vector 17 TcpSynAttack.被控主机[2].tcp.conn-15 sndAck:vector ETV
attr interpolationmode sample-hold
vector 18 TcpSynAttack.被控主机[3].tcp.conn-16 tcpRcvQueueBytes:vector ETV
attr interpolationmode sample-hold
vector 19 TcpSynAttack.被控主机[3].tcp.conn-16 rcvAdv:vector ETV
attr interpolationmode sample-hold
vector 20 TcpSynAttack.被控主机[3].tcp.conn-16 rcvWnd:vector ETV
attr interpolationmode sample-hold
vector 21 TcpSynAttack.被控主机[3].tcp.conn-16 sndAck:vector ETV
attr interpolationmode sample-hold
vector 22 TcpSynAttack.被控主机[4].tcp.conn-17 tcpRcvQueueBytes:vector ETV
attr interpolationmode sample-hold
vector 23 TcpSynAttack.被控主机[4].tcp.conn-17 rcvAdv:vector ETV
attr interpolationmode sample-hold
vector 24 TcpSynAttack.被控主机[4].tcp.conn-17 rcvWnd:vector ETV
attr interpolationmode sample-hold
vector 25 TcpSynAttack.被控主机[4].tcp.conn-17 sndAck:vector ETV
attr interpolationmode sample-hold
vector 26 TcpSynAttack.被控主机[5].tcp.conn-18 tcpRcvQueueBytes:vector ETV
attr interpolationmode sample-hold
vector 27 TcpSynAttack.被控主机[5].tcp.conn-18 rcvAdv:vector ETV
attr interpolationmode sample-hold
vector 28 TcpSynAttack.被控主机[5].tcp.conn-18 rcvWnd:vector ETV
attr interpolationmode sample-hold
vector 29 TcpSynAttack.被控主机[5].tcp.conn-18 sndAck:vector ETV
attr interpolationmode sample-hold
vector 30 TcpSynAttack.被控主机[0].ipv4.arp arpRequestSent:vector(packetBytes) ETV
attr source arpRequestSent
attr title "ARP request sent, vector(packetBytes)"
vector 31 TcpSynAttack.被控主机[1].ipv4.arp arpRequestSent:vector(packetBytes) ETV
attr source arpRequestSent
attr title "ARP request sent, vector(packetBytes)"
vector 32 TcpSynAttack.被控主机[2].ipv4.arp arpRequestSent:vector(packetBytes) ETV
attr source arpRequestSent
attr title "ARP request sent, vector(packetBytes)"
vector 33 TcpSynAttack.被控主机[3].ipv4.arp arpRequestSent:vector(packetBytes) ETV
attr source arpRequestSent
attr title "ARP request sent, vector(packetBytes)"
vector 34 TcpSynAttack.被控主机[4].ipv4.arp arpRequestSent:vector(packetBytes) ETV
attr source arpRequestSent
attr title "ARP request sent, vector(packetBytes)"
vector 35 TcpSynAttack.被控主机[5].ipv4.arp arpRequestSent:vector(packetBytes) ETV
attr source arpRequestSent
attr title "ARP request sent, vector(packetBytes)"
vector 36 TcpSynAttack.被控主机[0].eth[0].encap encapPk:vector(packetBytes) ETV
attr interpolationmode none
attr source encapPk
attr title "packets encapsulated, vector(packetBytes)"
vector 37 TcpSynAttack.被控主机[1].eth[0].encap encapPk:vector(packetBytes) ETV
attr interpolationmode none
attr source encapPk
attr title "packets encapsulated, vector(packetBytes)"
vector 38 TcpSynAttack.被控主机[2].eth[0].encap encapPk:vector(packetBytes) ETV
attr interpolationmode none
attr source encapPk
attr title "packets encapsulated, vector(packetBytes)"
vector 39 TcpSynAttack.被控主机[3].eth[0].encap encapPk:vector(packetBytes) ETV
attr interpolationmode none
attr source encapPk
attr title "packets encapsulated, vector(packetBytes)"
vector 40 TcpSynAttack.被控主机[4].eth[0].encap encapPk:vector(packetBytes) ETV
attr interpolationmode none
attr source encapPk
attr title "packets encapsulated, vector(packetBytes)"
vector 41 TcpSynAttack.被控主机[5].eth[0].encap encapPk:vector(packetBytes) ETV
attr interpolationmode none
attr source encapPk
attr title "packets encapsulated, vector(packetBytes)"
vector 42 TcpSynAttack.被控主机[0].eth[0].mac packetReceivedFromUpper:vector(packetBytes) ETV
attr interpolationmode none
attr source packetReceivedFromUpper
attr title "packet bytes from higher layer, vector(packetBytes)"
vector 43 TcpSynAttack.被控主机[0].eth[0].mac.queue packetPushed:vector(packetBytes) ETV
attr interpolationmode none
attr title "packet pushed, vector(packetBytes)"
vector 44 TcpSynAttack.被控主机[0].eth[0].mac.queue queueLength:vector ETV
attr interpolationmode sample-hold
attr source "count(packetPushed) - count(packetPopped) - count(packetRemoved) - count(packetDropped)"
attr title "queue length, vector"
vector 45 TcpSynAttack.被控主机[0].eth[0].mac.queue packetPopped:vector(packetBytes) ETV
attr interpolationmode none
attr title "packet popped, vector(packetBytes)"
vector 46 TcpSynAttack.被控主机[0].eth[0].mac.queue queueingTime:vector ETV
attr interpolationmode none
attr source queueingTime(packetPopped)
attr title "queueing times, vector"
attr unit s
vector 47 TcpSynAttack.被控主机[1].eth[0].mac packetReceivedFromUpper:vector(packetBytes) ETV
attr interpolationmode none
attr source packetReceivedFromUpper
attr title "packet bytes from higher layer, vector(packetBytes)"
vector 48 TcpSynAttack.被控主机[1].eth[0].mac.queue packetPushed:vector(packetBytes) ETV
attr interpolationmode none
attr title "packet pushed, vector(packetBytes)"
vector 49 TcpSynAttack.被控主机[1].eth[0].mac.queue queueLength:vector ETV
attr interpolationmode sample-hold
attr source "count(packetPushed) - count(packetPopped) - count(packetRemoved) - count(packetDropped)"
attr title "queue length, vector"
vector 50 TcpSynAttack.被控主机[1].eth[0].mac.queue packetPopped:vector(packetBytes) ETV
attr interpolationmode none
attr title "packet popped, vector(packetBytes)"
vector 51 TcpSynAttack.被控主机[1].eth[0].mac.queue queueingTime:vector ETV
attr interpolationmode none
attr source queueingTime(packetPopped)
attr title "queueing times, vector"
attr unit s
vector 52 TcpSynAttack.被控主机[2].eth[0].mac packetReceivedFromUpper:vector(packetBytes) ETV
attr interpolationmode none
attr source packetReceivedFromUpper
attr title "packet bytes from higher layer, vector(packetBytes)"
vector 53 TcpSynAttack.被控主机[2].eth[0].mac.queue packetPushed:vector(packetBytes) ETV
attr interpolationmode none
attr title "packet pushed, vector(packetBytes)"
vector 54 TcpSynAttack.被控主机[2].eth[0].mac.queue queueLength:vector ETV
attr interpolationmode sample-hold
attr source "count(packetPushed) - count(packetPopped) - count(packetRemoved) - count(packetDropped)"
attr title "queue length, vector"
vector 55 TcpSynAttack.被控主机[2].eth[0].mac.queue packetPopped:vector(packetBytes) ETV
attr interpolationmode none
attr title "packet popped, vector(packetBytes)"
vector 56 TcpSynAttack.被控主机[2].eth[0].mac.queue queueingTime:vector ETV
attr interpolationmode none
attr source queueingTime(packetPopped)
attr title "queueing times, vector"
attr unit s
vector 57 TcpSynAttack.被控主机[3].eth[0].mac packetReceivedFromUpper:vector(packetBytes) ETV
attr interpolationmode none
attr source packetReceivedFromUpper
attr title "packet bytes from higher layer, vector(packetBytes)"
vector 58 TcpSynAttack.被控主机[3].eth[0].mac.queue packetPushed:vector(packetBytes) ETV
attr interpolationmode none
attr title "packet pushed, vector(packetBytes)"
vector 59 TcpSynAttack.被控主机[3].eth[0].mac.queue queueLength:vector ETV
attr interpolationmode sample-hold
attr source "count(packetPushed) - count(packetPopped) - count(packetRemoved) - count(packetDropped)"
attr title "queue length, vector"
vector 60 TcpSynAttack.被控主机[3].eth[0].mac.queue packetPopped:vector(packetBytes) ETV
attr interpolationmode none
attr title "packet popped, vector(packetBytes)"
vector 61 TcpSynAttack.被控主机[3].eth[0].mac.queue queueingTime:vector ETV
attr interpolationmode none
attr source queueingTime(packetPopped)
attr title "queueing times, vector"
attr unit s
vector 62 TcpSynAttack.被控主机[4].eth[0].mac packetReceivedFromUpper:vector(packetBytes) ETV
attr interpolationmode none
attr source packetReceivedFromUpper
attr title "packet bytes from higher layer, vector(packetBytes)"
vector 63 TcpSynAttack.被控主机[4].eth[0].mac.queue packetPushed:vector(packetBytes) ETV
attr interpolationmode none
attr title "packet pushed, vector(packetBytes)"
vector 64 TcpSynAttack.被控主机[4].eth[0].mac.queue queueLength:vector ETV
attr interpolationmode sample-hold
attr source "count(packetPushed) - count(packetPopped) - count(packetRemoved) - count(packetDropped)"
attr title "queue length, vector"
vector 65 TcpSynAttack.被控主机[4].eth[0].mac.queue packetPopped:vector(packetBytes) ETV
attr interpolationmode none
attr title "packet popped, vector(packetBytes)"
vector 66 TcpSynAttack.被控主机[4].eth[0].mac.queue queueingTime:vector ETV
attr interpolationmode none
attr source queueingTime(packetPopped)
attr title "queueing times, vector"
attr unit s
vector 67 TcpSynAttack.被控主机[5].eth[0].mac packetReceivedFromUpper:vector(packetBytes) ETV
attr interpolationmode none
attr source packetReceivedFromUpper
attr title "packet bytes from higher layer, vector(packetBytes)"
vector 68 TcpSynAttack.被控主机[5].eth[0].mac.queue packetPushed:vector(packetBytes) ETV
attr interpolationmode none
attr title "packet pushed, vector(packetBytes)"
vector 69 TcpSynAttack.被控主机[5].eth[0].mac.queue queueLength:vector ETV
attr interpolationmode sample-hold
attr source "count(packetPushed) - count(packetPopped) - count(packetRemoved) - count(packetDropped)"
attr title "queue length, vector"
vector 70 TcpSynAttack.被控主机[5].eth[0].mac.queue packetPopped:vector(packetBytes) ETV
attr interpolationmode none
attr title "packet popped, vector(packetBytes)"
vector 71 TcpSynAttack.被控主机[5].eth[0].mac.queue queueingTime:vector ETV
attr interpolationmode none
attr source queueingTime(packetPopped)
attr title "queueing times, vector"
attr unit s
vector 72 TcpSynAttack.被控主机[0].eth[0].mac txPk:vector(packetBytes) ETV
attr interpolationmode none
attr source packetSentToLower
attr title "packets transmitted, vector(packetBytes)"
vector 73 TcpSynAttack.被控主机[1].eth[0].mac txPk:vector(packetBytes) ETV
attr interpolationmode none
attr source packetSentToLower
attr title "packets transmitted, vector(packetBytes)"
vector 74 TcpSynAttack.被控主机[2].eth[0].mac txPk:vector(packetBytes) ETV
attr interpolationmode none
attr source packetSentToLower
attr title "packets transmitted, vector(packetBytes)"
vector 75 TcpSynAttack.被控主机[3].eth[0].mac txPk:vector(packetBytes) ETV
attr interpolationmode none
attr source packetSentToLower
attr title "packets transmitted, vector(packetBytes)"
vector 76 TcpSynAttack.被控主机[4].eth[0].mac txPk:vector(packetBytes) ETV
attr interpolationmode none
attr source packetSentToLower
attr title "packets transmitted, vector(packetBytes)"
vector 77 TcpSynAttack.被控主机[5].eth[0].mac txPk:vector(packetBytes) ETV
attr interpolationmode none
attr source packetSentToLower
attr title "packets transmitted, vector(packetBytes)"
vector 78 TcpSynAttack.交换机[0].eth[1].mac rxPkOk:vector(packetBytes) ETV
attr interpolationmode none
attr source rxPkOk
attr title "packets received OK, vector(packetBytes)"
vector 79 TcpSynAttack.交换机[0].eth[1].mac passedUpPk:vector(packetBytes) ETV
attr interpolationmode none
attr source packetSentToUpper
attr title "packets passed to higher layer, vector(packetBytes)"
vector 80 TcpSynAttack.交换机[0].eth[2].mac rxPkOk:vector(packetBytes) ETV
attr interpolationmode none
attr source rxPkOk
attr title "packets received OK, vector(packetBytes)"
vector 81 TcpSynAttack.交换机[0].eth[2].mac passedUpPk:vector(packetBytes) ETV
attr interpolationmode none
attr source packetSentToUpper
attr title "packets passed to higher layer, vector(packetBytes)"
vector 82 TcpSynAttack.交换机[1].eth[2].mac rxPkOk:vector(packetBytes) ETV
attr interpolationmode none
attr source rxPkOk
attr title "packets received OK, vector(packetBytes)"
vector 83 TcpSynAttack.交换机[1].eth[2].mac passedUpPk:vector(packetBytes) ETV
attr interpolationmode none
attr source packetSentToUpper
attr title "packets passed to higher layer, vector(packetBytes)"
vector 84 TcpSynAttack.交换机[1].eth[3].mac rxPkOk:vector(packetBytes) ETV
attr interpolationmode none
attr source rxPkOk
attr title "packets received OK, vector(packetBytes)"
vector 85 TcpSynAttack.交换机[1].eth[3].mac passedUpPk:vector(packetBytes) ETV
attr interpolationmode none
attr source packetSentToUpper
attr title "packets passed to higher layer, vector(packetBytes)"
vector 86 TcpSynAttack.交换机[2].eth[1].mac rxPkOk:vector(packetBytes) ETV
attr interpolationmode none
attr source rxPkOk
attr title "packets received OK, vector(packetBytes)"
vector 87 TcpSynAttack.交换机[2].eth[1].mac passedUpPk:vector(packetBytes) ETV
attr interpolationmode none
attr source packetSentToUpper
attr title "packets passed to higher layer, vector(packetBytes)"
vector 88 TcpSynAttack.交换机[2].eth[2].mac rxPkOk:vector(packetBytes) ETV
attr interpolationmode none
attr source rxPkOk
attr title "packets received OK, vector(packetBytes)"
vector 89 TcpSynAttack.交换机[2].eth[2].mac passedUpPk:vector(packetBytes) ETV
attr interpolationmode none
attr source packetSentToUpper
attr title "packets passed to higher layer, vector(packetBytes)"
vector 90 TcpSynAttack.交换机[0].eth[0].mac packetReceivedFromUpper:vector(packetBytes) ETV
attr interpolationmode none
attr source packetReceivedFromUpper
attr title "packet bytes from higher layer, vector(packetBytes)"
vector 91 TcpSynAttack.交换机[0].eth[0].mac.queue packetPushed:vector(packetBytes) ETV
attr interpolationmode none
attr title "packet pushed, vector(packetBytes)"
vector 92 TcpSynAttack.交换机[0].eth[0].mac.queue queueLength:vector ETV
attr interpolationmode sample-hold
attr source "count(packetPushed) - count(packetPopped) - count(packetRemoved) - count(packetDropped)"
attr title "queue length, vector"
vector 93 TcpSynAttack.交换机[0].eth[0].mac.queue packetPopped:vector(packetBytes) ETV
attr interpolationmode none
attr title "packet popped, vector(packetBytes)"
vector 94 TcpSynAttack.交换机[0].eth[0].mac.queue queueingTime:vector ETV
attr interpolationmode none
attr source queueingTime(packetPopped)
attr title "queueing times, vector"
attr unit s
vector 95 TcpSynAttack.交换机[0].eth[2].mac packetReceivedFromUpper:vector(packetBytes) ETV
attr interpolationmode none
attr source packetReceivedFromUpper
attr title "packet bytes from higher layer, vector(packetBytes)"
vector 96 TcpSynAttack.交换机[0].eth[2].mac.queue packetPushed:vector(packetBytes) ETV
attr interpolationmode none
attr title "packet pushed, vector(packetBytes)"
vector 97 TcpSynAttack.交换机[0].eth[2].mac.queue queueLength:vector ETV
attr interpolationmode sample-hold
attr source "count(packetPushed) - count(packetPopped) - count(packetRemoved) - count(packetDropped)"
attr title "queue length, vector"
vector 98 TcpSynAttack.交换机[0].eth[2].mac.queue packetPopped:vector(packetBytes) ETV
attr interpolationmode none
attr title "packet popped, vector(packetBytes)"
vector 99 TcpSynAttack.交换机[0].eth[2].mac.queue queueingTime:vector ETV
attr interpolationmode none
attr source queueingTime(packetPopped)
attr title "queueing times, vector"
attr unit s
vector 100 TcpSynAttack.交换机[0].eth[1].mac packetReceivedFromUpper:vector(packetBytes) ETV
attr interpolationmode none
attr source packetReceivedFromUpper
attr title "packet bytes from higher layer, vector(packetBytes)"
vector 101 TcpSynAttack.交换机[0].eth[1].mac.queue packetPushed:vector(packetBytes) ETV
attr interpolationmode none
attr title "packet pushed, vector(packetBytes)"
vector 102 TcpSynAttack.交换机[0].eth[1].mac.queue queueLength:vector ETV
attr interpolationmode sample-hold
attr source "count(packetPushed) - count(packetPopped) - count(packetRemoved) - count(packetDropped)"
attr title "queue length, vector"
vector 103 TcpSynAttack.交换机[0].eth[1].mac.queue packetPopped:vector(packetBytes) ETV
attr interpolationmode none
attr title "packet popped, vector(packetBytes)"
vector 104 TcpSynAttack.交换机[0].eth[1].mac.queue queueingTime:vector ETV
attr interpolationmode none
attr source queueingTime(packetPopped)
attr title "queueing times, vector"
attr unit s
vector 105 TcpSynAttack.交换机[1].eth[0].mac packetReceivedFromUpper:vector(packetBytes) ETV
attr interpolationmode none
attr source packetReceivedFromUpper
attr title "packet bytes from higher layer, vector(packetBytes)"
vector 106 TcpSynAttack.交换机[1].eth[0].mac.queue packetPushed:vector(packetBytes) ETV
attr interpolationmode none
attr title "packet pushed, vector(packetBytes)"
vector 107 TcpSynAttack.交换机[1].eth[0].mac.queue queueLength:vector ETV
attr interpolationmode sample-hold
attr source "count(packetPushed) - count(packetPopped) - count(packetRemoved) - count(packetDropped)"
attr title "queue length, vector"
vector 108 TcpSynAttack.交换机[1].eth[0].mac.queue packetPopped:vector(packetBytes) ETV
attr interpolationmode none
attr title "packet popped, vector(packetBytes)"
vector 109 TcpSynAttack.交换机[1].eth[0].mac.queue queueingTime:vector ETV
attr interpolationmode none
attr source queueingTime(packetPopped)
attr title "queueing times, vector"
attr unit s
vector 110 TcpSynAttack.交换机[1].eth[1].mac packetReceivedFromUpper:vector(packetBytes) ETV
attr interpolationmode none
attr source packetReceivedFromUpper
attr title "packet bytes from higher layer, vector(packetBytes)"
vector 111 TcpSynAttack.交换机[1].eth[1].mac.queue packetPushed:vector(packetBytes) ETV
attr interpolationmode none
attr title "packet pushed, vector(packetBytes)"
vector 112 TcpSynAttack.交换机[1].eth[1].mac.queue queueLength:vector ETV
attr interpolationmode sample-hold
attr source "count(packetPushed) - count(packetPopped) - count(packetRemoved) - count(packetDropped)"
attr title "queue length, vector"
vector 113 TcpSynAttack.交换机[1].eth[1].mac.queue packetPopped:vector(packetBytes) ETV
attr interpolationmode none
attr title "packet popped, vector(packetBytes)"
vector 114 TcpSynAttack.交换机[1].eth[1].mac.queue queueingTime:vector ETV
attr interpolationmode none
attr source queueingTime(packetPopped)
attr title "queueing times, vector"
attr unit s
vector 115 TcpSynAttack.交换机[1].eth[3].mac packetReceivedFromUpper:vector(packetBytes) ETV
attr interpolationmode none
attr source packetReceivedFromUpper
attr title "packet bytes from higher layer, vector(packetBytes)"
vector 116 TcpSynAttack.交换机[1].eth[3].mac.queue packetPushed:vector(packetBytes) ETV
attr interpolationmode none
attr title "packet pushed, vector(packetBytes)"
vector 117 TcpSynAttack.交换机[1].eth[3].mac.queue queueLength:vector ETV
attr interpolationmode sample-hold
attr source "count(packetPushed) - count(packetPopped) - count(packetRemoved) - count(packetDropped)"
attr title "queue length, vector"
vector 118 TcpSynAttack.交换机[1].eth[3].mac.queue packetPopped:vector(packetBytes) ETV
attr interpolationmode none
attr title "packet popped, vector(packetBytes)"
vector 119 TcpSynAttack.交换机[1].eth[3].mac.queue queueingTime:vector ETV
attr interpolationmode none
attr source queueingTime(packetPopped)
attr title "queueing times, vector"
attr unit s
vector 120 TcpSynAttack.交换机[1].eth[2].mac packetReceivedFromUpper:vector(packetBytes) ETV
attr interpolationmode none
attr source packetReceivedFromUpper
attr title "packet bytes from higher layer, vector(packetBytes)"
vector 121 TcpSynAttack.交换机[1].eth[2].mac.queue packetPushed:vector(packetBytes) ETV
attr interpolationmode none
attr title "packet pushed, vector(packetBytes)"
vector 122 TcpSynAttack.交换机[1].eth[2].mac.queue queueLength:vector ETV
attr interpolationmode sample-hold
attr source "count(packetPushed) - count(packetPopped) - count(packetRemoved) - count(packetDropped)"
attr title "queue length, vector"
vector 123 TcpSynAttack.交换机[1].eth[2].mac.queue packetPopped:vector(packetBytes) ETV
attr interpolationmode none
attr title "packet popped, vector(packetBytes)"
vector 124 TcpSynAttack.交换机[1].eth[2].mac.queue queueingTime:vector ETV
attr interpolationmode none
attr source queueingTime(packetPopped)
attr title "queueing times, vector"
attr unit s
vector 125 TcpSynAttack.交换机[2].eth[0].mac packetReceivedFromUpper:vector(packetBytes) ETV
attr interpolationmode none
attr source packetReceivedFromUpper
attr title "packet bytes from higher layer, vector(packetBytes)"
vector 126 TcpSynAttack.交换机[2].eth[0].mac.queue packetPushed:vector(packetBytes) ETV
attr interpolationmode none
attr title "packet pushed, vector(packetBytes)"
vector 127 TcpSynAttack.交换机[2].eth[0].mac.queue queueLength:vector ETV
attr interpolationmode sample-hold
attr source "count(packetPushed) - count(packetPopped) - count(packetRemoved) - count(packetDropped)"
attr title "queue length, vector"
vector 128 TcpSynAttack.交换机[2].eth[0].mac.queue packetPopped:vector(packetBytes) ETV
attr interpolationmode none
attr title "packet popped, vector(packetBytes)"
vector 129 TcpSynAttack.交换机[2].eth[0].mac.queue queueingTime:vector ETV
attr interpolationmode none
attr source queueingTime(packetPopped)
attr title "queueing times, vector"
attr unit s
vector 130 TcpSynAttack.交换机[2].eth[2].mac packetReceivedFromUpper:vector(packetBytes) ETV
attr interpolationmode none
attr source packetReceivedFromUpper
attr title "packet bytes from higher layer, vector(packetBytes)"
vector 131 TcpSynAttack.交换机[2].eth[2].mac.queue packetPushed:vector(packetBytes) ETV
attr interpolationmode none
attr title "packet pushed, vector(packetBytes)"
vector 132 TcpSynAttack.交换机[2].eth[2].mac.queue queueLength:vector ETV
attr interpolationmode sample-hold
attr source "count(packetPushed) - count(packetPopped) - count(packetRemoved) - count(packetDropped)"
attr title "queue length, vector"
vector 133 TcpSynAttack.交换机[2].eth[2].mac.queue packetPopped:vector(packetBytes) ETV
attr interpolationmode none
attr title "packet popped, vector(packetBytes)"
vector 134 TcpSynAttack.交换机[2].eth[2].mac.queue queueingTime:vector ETV
attr interpolationmode none
attr source queueingTime(packetPopped)
attr title "queueing times, vector"
attr unit s
vector 135 TcpSynAttack.交换机[2].eth[1].mac packetReceivedFromUpper:vector(packetBytes) ETV
attr interpolationmode none
attr source packetReceivedFromUpper
attr title "packet bytes from higher layer, vector(packetBytes)"
vector 136 TcpSynAttack.交换机[2].eth[1].mac.queue packetPushed:vector(packetBytes) ETV
attr interpolationmode none
attr title "packet pushed, vector(packetBytes)"
vector 137 TcpSynAttack.交换机[2].eth[1].mac.queue queueLength:vector ETV
attr interpolationmode sample-hold
attr source "count(packetPushed) - count(packetPopped) - count(packetRemoved) - count(packetDropped)"
attr title "queue length, vector"
vector 138 TcpSynAttack.交换机[2].eth[1].mac.queue packetPopped:vector(packetBytes) ETV
attr interpolationmode none
attr title "packet popped, vector(packetBytes)"
vector 139 TcpSynAttack.交换机[2].eth[1].mac.queue queueingTime:vector ETV
attr interpolationmode none
attr source queueingTime(packetPopped)
attr title "queueing times, vector"
attr unit s
vector 140 TcpSynAttack.交换机[0].eth[0].mac txPk:vector(packetBytes) ETV
attr interpolationmode none
attr source packetSentToLower
attr title "packets transmitted, vector(packetBytes)"
vector 141 TcpSynAttack.交换机[1].eth[0].mac txPk:vector(packetBytes) ETV
attr interpolationmode none
attr source packetSentToLower
attr title "packets transmitted, vector(packetBytes)"
vector 142 TcpSynAttack.交换机[1].eth[1].mac txPk:vector(packetBytes) ETV
attr interpolationmode none
attr source packetSentToLower
attr title "packets transmitted, vector(packetBytes)"
vector 143 TcpSynAttack.交换机[2].eth[0].mac txPk:vector(packetBytes) ETV
attr interpolationmode none
attr source packetSentToLower
attr title "packets transmitted, vector(packetBytes)"
vector 144 TcpSynAttack.路由器[0].eth[0].mac rxPkOk:vector(packetBytes) ETV
attr interpolationmode none
attr source rxPkOk
attr title "packets received OK, vector(packetBytes)"
vector 145 TcpSynAttack.路由器[0].eth[0].mac passedUpPk:vector(packetBytes) ETV
attr interpolationmode none
attr source packetSentToUpper
attr title "packets passed to higher layer, vector(packetBytes)"
vector 146 TcpSynAttack.路由器[1].eth[0].mac rxPkOk:vector(packetBytes) ETV
attr interpolationmode none
attr source rxPkOk
attr title "packets received OK, vector(packetBytes)"
vector 147 TcpSynAttack.路由器[1].eth[0].mac passedUpPk:vector(packetBytes) ETV
attr interpolationmode none
attr source packetSentToUpper
attr title "packets passed to higher layer, vector(packetBytes)"
vector 148 TcpSynAttack.服务器.eth[0].mac rxPkOk:vector(packetBytes) ETV
attr interpolationmode none
attr source rxPkOk
attr title "packets received OK, vector(packetBytes)"
vector 149 TcpSynAttack.服务器.eth[0].mac passedUpPk:vector(packetBytes) ETV
attr interpolationmode none
attr source packetSentToUpper
attr title "packets passed to higher layer, vector(packetBytes)"
vector 150 TcpSynAttack.路由器[2].eth[0].mac rxPkOk:vector(packetBytes) ETV
attr interpolationmode none
attr source rxPkOk
attr title "packets received OK, vector(packetBytes)"
vector 151 TcpSynAttack.路由器[2].eth[0].mac passedUpPk:vector(packetBytes) ETV
attr interpolationmode none
attr source packetSentToUpper
attr title "packets passed to higher layer, vector(packetBytes)"
vector 152 TcpSynAttack.路由器[0].eth[0].encap decapPk:vector(packetBytes) ETV
attr interpolationmode none
attr source decapPk
attr title "packets decapsulated, vector(packetBytes)"
vector 153 TcpSynAttack.路由器[1].eth[0].encap decapPk:vector(packetBytes) ETV
attr interpolationmode none
attr source decapPk
attr title "packets decapsulated, vector(packetBytes)"
vector 154 TcpSynAttack.服务器.eth[0].encap decapPk:vector(packetBytes) ETV
attr interpolationmode none
attr source decapPk
attr title "packets decapsulated, vector(packetBytes)"
vector 155 TcpSynAttack.路由器[2].eth[0].encap decapPk:vector(packetBytes) ETV
attr interpolationmode none
attr source decapPk
attr title "packets decapsulated, vector(packetBytes)"
vector 156 TcpSynAttack.路由器[0].ipv4.arp arpReplySent:vector(packetBytes) ETV
attr source arpReplySent
attr title "ARP replies sent, vector(packetBytes)"
vector 157 TcpSynAttack.服务器.ipv4.arp arpReplySent:vector(packetBytes) ETV
attr source arpReplySent
attr title "ARP replies sent, vector(packetBytes)"
vector 158 TcpSynAttack.路由器[2].ipv4.arp arpReplySent:vector(packetBytes) ETV
attr source arpReplySent
attr title "ARP replies sent, vector(packetBytes)"
vector 159 TcpSynAttack.路由器[0].eth[0].encap encapPk:vector(packetBytes) ETV
attr interpolationmode none
attr source encapPk
attr title "packets encapsulated, vector(packetBytes)"
vector 160 TcpSynAttack.服务器.eth[0].encap encapPk:vector(packetBytes) ETV
attr interpolationmode none
attr source encapPk
attr title "packets encapsulated, vector(packetBytes)"
vector 161 TcpSynAttack.路由器[2].eth[0].encap encapPk:vector(packetBytes) ETV
attr interpolationmode none
attr source encapPk
attr title "packets encapsulated, vector(packetBytes)"
vector 162 TcpSynAttack.路由器[0].eth[0].mac packetReceivedFromUpper:vector(packetBytes) ETV
attr interpolationmode none
attr source packetReceivedFromUpper
attr title "packet bytes from higher layer, vector(packetBytes)"
vector 163 TcpSynAttack.路由器[0].eth[0].mac.queue packetPushed:vector(packetBytes) ETV
attr interpolationmode none
attr title "packet pushed, vector(packetBytes)"
vector 164 TcpSynAttack.路由器[0].eth[0].mac.queue queueLength:vector ETV
attr interpolationmode sample-hold
attr source "count(packetPushed) - count(packetPopped) - count(packetRemoved) - count(packetDropped)"
attr title "queue length, vector"
vector 165 TcpSynAttack.路由器[0].eth[0].mac.queue packetPopped:vector(packetBytes) ETV
attr interpolationmode none
attr title "packet popped, vector(packetBytes)"
vector 166 TcpSynAttack.路由器[0].eth[0].mac.queue queueingTime:vector ETV
attr interpolationmode none
attr source queueingTime(packetPopped)
attr title "queueing times, vector"
attr unit s
vector 167 TcpSynAttack.服务器.eth[0].mac packetReceivedFromUpper:vector(packetBytes) ETV
attr interpolationmode none
attr source packetReceivedFromUpper
attr title "packet bytes from higher layer, vector(packetBytes)"
vector 168 TcpSynAttack.服务器.eth[0].mac.queue packetPushed:vector(packetBytes) ETV
attr interpolationmode none
attr title "packet pushed, vector(packetBytes)"
vector 169 TcpSynAttack.服务器.eth[0].mac.queue queueLength:vector ETV
attr interpolationmode sample-hold
attr source "count(packetPushed) - count(packetPopped) - count(packetRemoved) - count(packetDropped)"
attr title "queue length, vector"
vector 170 TcpSynAttack.服务器.eth[0].mac.queue packetPopped:vector(packetBytes) ETV
attr interpolationmode none
attr title "packet popped, vector(packetBytes)"
vector 171 TcpSynAttack.服务器.eth[0].mac.queue queueingTime:vector ETV
attr interpolationmode none
attr source queueingTime(packetPopped)
attr title "queueing times, vector"
attr unit s
vector 172 TcpSynAttack.路由器[2].eth[0].mac packetReceivedFromUpper:vector(packetBytes) ETV
attr interpolationmode none
attr source packetReceivedFromUpper
attr title "packet bytes from higher layer, vector(packetBytes)"
vector 173 TcpSynAttack.路由器[2].eth[0].mac.queue packetPushed:vector(packetBytes) ETV
attr interpolationmode none
attr title "packet pushed, vector(packetBytes)"
vector 174 TcpSynAttack.路由器[2].eth[0].mac.queue queueLength:vector ETV
attr interpolationmode sample-hold
attr source "count(packetPushed) - count(packetPopped) - count(packetRemoved) - count(packetDropped)"
attr title "queue length, vector"
vector 175 TcpSynAttack.路由器[2].eth[0].mac.queue packetPopped:vector(packetBytes) ETV
attr interpolationmode none
attr title "packet popped, vector(packetBytes)"
vector 176 TcpSynAttack.路由器[2].eth[0].mac.queue queueingTime:vector ETV
attr interpolationmode none
attr source queueingTime(packetPopped)
attr title "queueing times, vector"
attr unit s
vector 177 TcpSynAttack.交换机[0].eth[1].mac txPk:vector(packetBytes) ETV
attr interpolationmode none
attr source packetSentToLower
attr title "packets transmitted, vector(packetBytes)"
vector 178 TcpSynAttack.交换机[0].eth[2].mac txPk:vector(packetBytes) ETV
attr interpolationmode none
attr source packetSentToLower
attr title "packets transmitted, vector(packetBytes)"
vector 179 TcpSynAttack.交换机[1].eth[2].mac txPk:vector(packetBytes) ETV
attr interpolationmode none
attr source packetSentToLower
attr title "packets transmitted, vector(packetBytes)"
vector 180 TcpSynAttack.交换机[1].eth[3].mac txPk:vector(packetBytes) ETV
attr interpolationmode none
attr source packetSentToLower
attr title "packets transmitted, vector(packetBytes)"
vector 181 TcpSynAttack.交换机[2].eth[1].mac txPk:vector(packetBytes) ETV
attr interpolationmode none
attr source packetSentToLower
attr title "packets transmitted, vector(packetBytes)"
vector 182 TcpSynAttack.交换机[2].eth[2].mac txPk:vector(packetBytes) ETV
attr interpolationmode none
attr source packetSentToLower
attr title "packets transmitted, vector(packetBytes)"
vector 183 TcpSynAttack.被控主机[0].eth[0].mac rxPkOk:vector(packetBytes) ETV
attr interpolationmode none
attr source rxPkOk
attr title "packets received OK, vector(packetBytes)"
vector 184 TcpSynAttack.被控主机[0].eth[0].mac passedUpPk:vector(packetBytes) ETV
attr interpolationmode none
attr source packetSentToUpper
attr title "packets passed to higher layer, vector(packetBytes)"
vector 185 TcpSynAttack.被控主机[1].eth[0].mac rxPkOk:vector(packetBytes) ETV
attr interpolationmode none
attr source rxPkOk
attr title "packets received OK, vector(packetBytes)"
vector 186 TcpSynAttack.被控主机[1].eth[0].mac passedUpPk:vector(packetBytes) ETV
attr interpolationmode none
attr source packetSentToUpper
attr title "packets passed to higher layer, vector(packetBytes)"
vector 187 TcpSynAttack.被控主机[2].eth[0].mac rxPkOk:vector(packetBytes) ETV
attr interpolationmode none
attr source rxPkOk
attr title "packets received OK, vector(packetBytes)"
vector 188 TcpSynAttack.被控主机[2].eth[0].mac passedUpPk:vector(packetBytes) ETV
attr interpolationmode none
attr source packetSentToUpper
attr title "packets passed to higher layer, vector(packetBytes)"
vector 189 TcpSynAttack.被控主机[3].eth[0].mac rxPkOk:vector(packetBytes) ETV
attr interpolationmode none
attr source rxPkOk
attr title "packets received OK, vector(packetBytes)"
vector 190 TcpSynAttack.被控主机[3].eth[0].mac passedUpPk:vector(packetBytes) ETV
attr interpolationmode none
attr source packetSentToUpper
attr title "packets passed to higher layer, vector(packetBytes)"
vector 191 TcpSynAttack.被控主机[4].eth[0].mac rxPkOk:vector(packetBytes) ETV
attr interpolationmode none
attr source rxPkOk
attr title "packets received OK, vector(packetBytes)"
vector 192 TcpSynAttack.被控主机[4].eth[0].mac passedUpPk:vector(packetBytes) ETV
attr interpolationmode none
attr source packetSentToUpper
attr title "packets passed to higher layer, vector(packetBytes)"
vector 193 TcpSynAttack.被控主机[5].eth[0].mac rxPkOk:vector(packetBytes) ETV
attr interpolationmode none
attr source rxPkOk
attr title "packets received OK, vector(packetBytes)"
vector 194 TcpSynAttack.被控主机[5].eth[0].mac passedUpPk:vector(packetBytes) ETV
attr interpolationmode none
attr source packetSentToUpper
attr title "packets passed to higher layer, vector(packetBytes)"
vector 195 TcpSynAttack.被控主机[0].eth[0].encap decapPk:vector(packetBytes) ETV
attr interpolationmode none
attr source decapPk
attr title "packets decapsulated, vector(packetBytes)"
vector 196 TcpSynAttack.被控主机[1].eth[0].encap decapPk:vector(packetBytes) ETV
attr interpolationmode none
attr source decapPk
attr title "packets decapsulated, vector(packetBytes)"
vector 197 TcpSynAttack.被控主机[2].eth[0].encap decapPk:vector(packetBytes) ETV
attr interpolationmode none
attr source decapPk
attr title "packets decapsulated, vector(packetBytes)"
vector 198 TcpSynAttack.被控主机[3].eth[0].encap decapPk:vector(packetBytes) ETV
attr interpolationmode none
attr source decapPk
attr title "packets decapsulated, vector(packetBytes)"
vector 199 TcpSynAttack.被控主机[4].eth[0].encap decapPk:vector(packetBytes) ETV
attr interpolationmode none
attr source decapPk
attr title "packets decapsulated, vector(packetBytes)"
vector 200 TcpSynAttack.被控主机[5].eth[0].encap decapPk:vector(packetBytes) ETV
attr interpolationmode none
attr source decapPk
attr title "packets decapsulated, vector(packetBytes)"
vector 201 TcpSynAttack.路由器[0].eth[0].mac txPk:vector(packetBytes) ETV
attr interpolationmode none
attr source packetSentToLower
attr title "packets transmitted, vector(packetBytes)"
vector 202 TcpSynAttack.交换机[0].eth[0].mac rxPkOk:vector(packetBytes) ETV
attr interpolationmode none
attr source rxPkOk
attr title "packets received OK, vector(packetBytes)"
vector 203 TcpSynAttack.交换机[0].eth[0].mac passedUpPk:vector(packetBytes) ETV
attr interpolationmode none
attr source packetSentToUpper
attr title "packets passed to higher layer, vector(packetBytes)"
vector 204 TcpSynAttack.服务器.eth[0].mac txPk:vector(packetBytes) ETV
attr interpolationmode none
attr source packetSentToLower
attr title "packets transmitted, vector(packetBytes)"
vector 205 TcpSynAttack.路由器[2].eth[0].mac txPk:vector(packetBytes) ETV
attr interpolationmode none
attr source packetSentToLower
attr title "packets transmitted, vector(packetBytes)"
vector 206 TcpSynAttack.交换机[1].eth[1].mac rxPkOk:vector(packetBytes) ETV
attr interpolationmode none
attr source rxPkOk
attr title "packets received OK, vector(packetBytes)"
vector 207 TcpSynAttack.交换机[1].eth[1].mac passedUpPk:vector(packetBytes) ETV
attr interpolationmode none
attr source packetSentToUpper
attr title "packets passed to higher layer, vector(packetBytes)"
vector 208 TcpSynAttack.交换机[2].eth[0].mac rxPkOk:vector(packetBytes) ETV
attr interpolationmode none
attr source rxPkOk
attr title "packets received OK, vector(packetBytes)"
vector 209 TcpSynAttack.交换机[2].eth[0].mac passedUpPk:vector(packetBytes) ETV
attr interpolationmode none
attr source packetSentToUpper
attr title "packets passed to higher layer, vector(packetBytes)"
vector 210 TcpSynAttack.路由器[0].ppp[0].ppp rcvdPkFromHl:vector(packetBytes) ETV
attr interpolationmode none
attr source packetReceivedFromUpper
attr title "packets received from higher layer, vector(packetBytes)"
vector 211 TcpSynAttack.路由器[0].ppp[0].ppp.queue packetPushed:vector(packetBytes) ETV
attr interpolationmode none
attr title "packet pushed, vector(packetBytes)"
vector 212 TcpSynAttack.路由器[0].ppp[0].ppp.queue queueLength:vector ETV
attr interpolationmode sample-hold
attr source "count(packetPushed) - count(packetPopped) - count(packetRemoved) - count(packetDropped)"
attr title "queue length, vector"
vector 213 TcpSynAttack.路由器[0].ppp[0].ppp.queue packetPopped:vector(packetBytes) ETV
attr interpolationmode none
attr title "packet popped, vector(packetBytes)"
vector 214 TcpSynAttack.路由器[0].ppp[0].ppp.queue queueingTime:vector ETV
attr interpolationmode none
attr source queueingTime(packetPopped)
attr title "queueing times, vector"
attr unit s
vector 215 TcpSynAttack.路由器[0].ppp[0].ppp txPk:vector(packetBytes) ETV
attr interpolationmode none
attr source packetSentToLower
attr title "packets transmitted, vector(packetBytes)"
vector 216 TcpSynAttack.服务器.tcp.conn-6 rcvSeq:vector ETV
attr interpolationmode sample-hold
vector 217 TcpSynAttack.服务器.tcp.conn-6 rcvAck:vector ETV
attr interpolationmode sample-hold
vector 218 TcpSynAttack.服务器.tcp.conn-19 rcvAdv:vector ETV
attr interpolationmode sample-hold
vector 219 TcpSynAttack.服务器.tcp.conn-19 sndWnd:vector ETV
attr interpolationmode sample-hold
vector 220 TcpSynAttack.服务器.tcp.conn-19 tcpRcvQueueBytes:vector ETV
attr interpolationmode sample-hold
vector 221 TcpSynAttack.服务器.tcp.conn-19 rcvWnd:vector ETV
attr interpolationmode sample-hold
vector 222 TcpSynAttack.服务器.tcp.conn-19 sndAck:vector ETV
attr interpolationmode sample-hold
vector 223 TcpSynAttack.路由器[2].ppp[0].ppp rcvdPkFromHl:vector(packetBytes) ETV
attr interpolationmode none
attr source packetReceivedFromUpper
attr title "packets received from higher layer, vector(packetBytes)"
vector 224 TcpSynAttack.路由器[2].ppp[0].ppp.queue packetPushed:vector(packetBytes) ETV
attr interpolationmode none
attr title "packet pushed, vector(packetBytes)"
vector 225 TcpSynAttack.路由器[2].ppp[0].ppp.queue queueLength:vector ETV
attr interpolationmode sample-hold
attr source "count(packetPushed) - count(packetPopped) - count(packetRemoved) - count(packetDropped)"
attr title "queue length, vector"
vector 226 TcpSynAttack.路由器[2].ppp[0].ppp.queue packetPopped:vector(packetBytes) ETV
attr interpolationmode none
attr title "packet popped, vector(packetBytes)"
vector 227 TcpSynAttack.路由器[2].ppp[0].ppp.queue queueingTime:vector ETV
attr interpolationmode none
attr source queueingTime(packetPopped)
attr title "queueing times, vector"
attr unit s
vector 228 TcpSynAttack.路由器[2].ppp[0].ppp txPk:vector(packetBytes) ETV
attr interpolationmode none
attr source packetSentToLower
attr title "packets transmitted, vector(packetBytes)"
vector 229 TcpSynAttack.路由器[1].ppp[0].ppp rxPkOk:vector(packetBytes) ETV
attr interpolationmode none
attr source rxPkOk
attr title "packets received OK, vector(packetBytes)"
vector 230 TcpSynAttack.路由器[1].ppp[0].ppp passedUpPk:vector(packetBytes) ETV
attr interpolationmode none
attr source packetSentToUpper
attr title "packets passed to higher layer, vector(packetBytes)"
vector 231 TcpSynAttack.路由器[1].ipv4.arp arpRequestSent:vector(packetBytes) ETV
attr source arpRequestSent
attr title "ARP request sent, vector(packetBytes)"
vector 232 TcpSynAttack.路由器[1].eth[0].encap encapPk:vector(packetBytes) ETV
attr interpolationmode none
attr source encapPk
attr title "packets encapsulated, vector(packetBytes)"
vector 233 TcpSynAttack.路由器[1].eth[0].mac packetReceivedFromUpper:vector(packetBytes) ETV
attr interpolationmode none
attr source packetReceivedFromUpper
attr title "packet bytes from higher layer, vector(packetBytes)"
vector 234 TcpSynAttack.路由器[1].eth[0].mac.queue packetPushed:vector(packetBytes) ETV
attr interpolationmode none
attr title "packet pushed, vector(packetBytes)"
vector 235 TcpSynAttack.路由器[1].eth[0].mac.queue queueLength:vector ETV
attr interpolationmode sample-hold
attr source "count(packetPushed) - count(packetPopped) - count(packetRemoved) - count(packetDropped)"
attr title "queue length, vector"
vector 236 TcpSynAttack.路由器[1].eth[0].mac.queue packetPopped:vector(packetBytes) ETV
attr interpolationmode none
attr title "packet popped, vector(packetBytes)"
vector 237 TcpSynAttack.路由器[1].eth[0].mac.queue queueingTime:vector ETV
attr interpolationmode none
attr source queueingTime(packetPopped)
attr title "queueing times, vector"
attr unit s
vector 238 TcpSynAttack.服务器.tcp.conn-20 rcvAdv:vector ETV
attr interpolationmode sample-hold
vector 239 TcpSynAttack.服务器.tcp.conn-20 sndWnd:vector ETV
attr interpolationmode sample-hold
vector 240 TcpSynAttack.服务器.tcp.conn-20 tcpRcvQueueBytes:vector ETV
attr interpolationmode sample-hold
vector 241 TcpSynAttack.服务器.tcp.conn-20 rcvWnd:vector ETV
attr interpolationmode sample-hold
vector 242 TcpSynAttack.服务器.tcp.conn-20 sndAck:vector ETV
attr interpolationmode sample-hold
vector 243 TcpSynAttack.路由器[1].ppp[1].ppp rxPkOk:vector(packetBytes) ETV
attr interpolationmode none
attr source rxPkOk
attr title "packets received OK, vector(packetBytes)"
vector 244 TcpSynAttack.路由器[1].ppp[1].ppp passedUpPk:vector(packetBytes) ETV
attr interpolationmode none
attr source packetSentToUpper
attr title "packets passed to higher layer, vector(packetBytes)"
vector 245 TcpSynAttack.路由器[1].eth[0].mac txPk:vector(packetBytes) ETV
attr interpolationmode none
attr source packetSentToLower
attr title "packets transmitted, vector(packetBytes)"
vector 246 TcpSynAttack.交换机[1].eth[0].mac rxPkOk:vector(packetBytes) ETV
attr interpolationmode none
attr source rxPkOk
attr title "packets received OK, vector(packetBytes)"
vector 247 TcpSynAttack.交换机[1].eth[0].mac passedUpPk:vector(packetBytes) ETV
attr interpolationmode none
attr source packetSentToUpper
attr title "packets passed to higher layer, vector(packetBytes)"
vector 248 TcpSynAttack.被控主机[2].tcp.conn-15 rcvSeq:vector ETV
attr interpolationmode sample-hold
vector 249 TcpSynAttack.被控主机[2].tcp.conn-15 rcvAck:vector ETV
attr interpolationmode sample-hold
vector 250 TcpSynAttack.被控主机[2].tcp.conn-15 sndWnd:vector ETV
attr interpolationmode sample-hold
vector 251 TcpSynAttack.被控主机[3].tcp.conn-16 rcvSeq:vector ETV
attr interpolationmode sample-hold
vector 252 TcpSynAttack.被控主机[3].tcp.conn-16 rcvAck:vector ETV
attr interpolationmode sample-hold
vector 253 TcpSynAttack.被控主机[3].tcp.conn-16 sndWnd:vector ETV
attr interpolationmode sample-hold
vector 254 TcpSynAttack.服务器.tcp.conn-21 rcvAdv:vector ETV
attr interpolationmode sample-hold
vector 255 TcpSynAttack.服务器.tcp.conn-21 sndWnd:vector ETV
attr interpolationmode sample-hold
vector 256 TcpSynAttack.服务器.tcp.conn-21 tcpRcvQueueBytes:vector ETV
attr interpolationmode sample-hold
vector 257 TcpSynAttack.服务器.tcp.conn-21 rcvWnd:vector ETV
attr interpolationmode sample-hold
vector 258 TcpSynAttack.服务器.tcp.conn-21 sndAck:vector ETV
attr interpolationmode sample-hold
vector 259 TcpSynAttack.服务器.tcp.conn-22 rcvAdv:vector ETV
attr interpolationmode sample-hold
vector 260 TcpSynAttack.服务器.tcp.conn-22 sndWnd:vector ETV
attr interpolationmode sample-hold
vector 261 TcpSynAttack.服务器.tcp.conn-22 tcpRcvQueueBytes:vector ETV
attr interpolationmode sample-hold
vector 262 TcpSynAttack.服务器.tcp.conn-22 rcvWnd:vector ETV
attr interpolationmode sample-hold
vector 263 TcpSynAttack.服务器.tcp.conn-22 sndAck:vector ETV
attr interpolationmode sample-hold
vector 264 TcpSynAttack.路由器[1].ppp[0].ppp rcvdPkFromHl:vector(packetBytes) ETV
attr interpolationmode none
attr source packetReceivedFromUpper
attr title "packets received from higher layer, vector(packetBytes)"
vector 265 TcpSynAttack.路由器[1].ppp[0].ppp.queue packetPushed:vector(packetBytes) ETV
attr interpolationmode none
attr title "packet pushed, vector(packetBytes)"
vector 266 TcpSynAttack.路由器[1].ppp[0].ppp.queue queueLength:vector ETV
attr interpolationmode sample-hold
attr source "count(packetPushed) - count(packetPopped) - count(packetRemoved) - count(packetDropped)"
attr title "queue length, vector"
vector 267 TcpSynAttack.路由器[1].ppp[0].ppp.queue packetPopped:vector(packetBytes) ETV
attr interpolationmode none
attr title "packet popped, vector(packetBytes)"
vector 268 TcpSynAttack.路由器[1].ppp[0].ppp.queue queueingTime:vector ETV
attr interpolationmode none
attr source queueingTime(packetPopped)
attr title "queueing times, vector"
attr unit s
vector 269 TcpSynAttack.路由器[1].ppp[0].ppp txPk:vector(packetBytes) ETV
attr interpolationmode none
attr source packetSentToLower
attr title "packets transmitted, vector(packetBytes)"
vector 270 TcpSynAttack.服务器.tcp.conn-23 rcvAdv:vector ETV
attr interpolationmode sample-hold
vector 271 TcpSynAttack.服务器.tcp.conn-23 sndWnd:vector ETV
attr interpolationmode sample-hold
vector 272 TcpSynAttack.服务器.tcp.conn-23 tcpRcvQueueBytes:vector ETV
attr interpolationmode sample-hold
vector 273 TcpSynAttack.服务器.tcp.conn-23 rcvWnd:vector ETV
attr interpolationmode sample-hold
vector 274 TcpSynAttack.服务器.tcp.conn-23 sndAck:vector ETV
attr interpolationmode sample-hold
vector 275 TcpSynAttack.路由器[1].ppp[1].ppp rcvdPkFromHl:vector(packetBytes) ETV
attr interpolationmode none
attr source packetReceivedFromUpper
attr title "packets received from higher layer, vector(packetBytes)"
vector 276 TcpSynAttack.路由器[1].ppp[1].ppp.queue packetPushed:vector(packetBytes) ETV
attr interpolationmode none
attr title "packet pushed, vector(packetBytes)"
vector 277 TcpSynAttack.路由器[1].ppp[1].ppp.queue queueLength:vector ETV
attr interpolationmode sample-hold
attr source "count(packetPushed) - count(packetPopped) - count(packetRemoved) - count(packetDropped)"
attr title "queue length, vector"
vector 278 TcpSynAttack.路由器[1].ppp[1].ppp.queue packetPopped:vector(packetBytes) ETV
attr interpolationmode none
attr title "packet popped, vector(packetBytes)"
vector 279 TcpSynAttack.路由器[1].ppp[1].ppp.queue queueingTime:vector ETV
attr interpolationmode none
attr source queueingTime(packetPopped)
attr title "queueing times, vector"
attr unit s
vector 280 TcpSynAttack.路由器[1].ppp[1].ppp txPk:vector(packetBytes) ETV
attr interpolationmode none
attr source packetSentToLower
attr title "packets transmitted, vector(packetBytes)"
vector 281 TcpSynAttack.服务器.tcp.conn-24 rcvAdv:vector ETV
attr interpolationmode sample-hold
vector 282 TcpSynAttack.服务器.tcp.conn-24 sndWnd:vector ETV
attr interpolationmode sample-hold
vector 283 TcpSynAttack.服务器.tcp.conn-24 tcpRcvQueueBytes:vector ETV
attr interpolationmode sample-hold
vector 284 TcpSynAttack.服务器.tcp.conn-24 rcvWnd:vector ETV
attr interpolationmode sample-hold
vector 285 TcpSynAttack.服务器.tcp.conn-24 sndAck:vector ETV
attr interpolationmode sample-hold
vector 286 TcpSynAttack.路由器[0].ppp[0].ppp rxPkOk:vector(packetBytes) ETV
attr interpolationmode none
attr source rxPkOk
attr title "packets received OK, vector(packetBytes)"
vector 287 TcpSynAttack.路由器[0].ppp[0].ppp passedUpPk:vector(packetBytes) ETV
attr interpolationmode none
attr source packetSentToUpper
attr title "packets passed to higher layer, vector(packetBytes)"
vector 288 TcpSynAttack.路由器[2].ppp[0].ppp rxPkOk:vector(packetBytes) ETV
attr interpolationmode none
attr source rxPkOk
attr title "packets received OK, vector(packetBytes)"
vector 289 TcpSynAttack.路由器[2].ppp[0].ppp passedUpPk:vector(packetBytes) ETV
attr interpolationmode none
attr source packetSentToUpper
attr title "packets passed to higher layer, vector(packetBytes)"
vector 290 TcpSynAttack.被控主机[0].tcp.conn-13 rcvSeq:vector ETV
attr interpolationmode sample-hold
vector 291 TcpSynAttack.被控主机[0].tcp.conn-13 rcvAck:vector ETV
attr interpolationmode sample-hold
vector 292 TcpSynAttack.被控主机[0].tcp.conn-13 sndWnd:vector ETV
attr interpolationmode sample-hold
vector 293 TcpSynAttack.被控主机[4].tcp.conn-17 rcvSeq:vector ETV
attr interpolationmode sample-hold
vector 294 TcpSynAttack.被控主机[4].tcp.conn-17 rcvAck:vector ETV
attr interpolationmode sample-hold
vector 295 TcpSynAttack.被控主机[4].tcp.conn-17 sndWnd:vector ETV
attr interpolationmode sample-hold
vector 296 TcpSynAttack.被控主机[1].tcp.conn-14 rcvSeq:vector ETV
attr interpolationmode sample-hold
vector 297 TcpSynAttack.被控主机[1].tcp.conn-14 rcvAck:vector ETV
attr interpolationmode sample-hold
vector 298 TcpSynAttack.被控主机[1].tcp.conn-14 sndWnd:vector ETV
attr interpolationmode sample-hold
vector 299 TcpSynAttack.被控主机[5].tcp.conn-18 rcvSeq:vector ETV
attr interpolationmode sample-hold
vector 300 TcpSynAttack.被控主机[5].tcp.conn-18 rcvAck:vector ETV
attr interpolationmode sample-hold
vector 301 TcpSynAttack.被控主机[5].tcp.conn-18 sndWnd:vector ETV
attr interpolationmode sample-hold
0	52868 80 0 401 0 1.0050886 5 0 1 2 2
1	52948 8 0 0 0 0 1 0 0 0 0
2	52956 80 0 610 0 1.0113295 5 0 1 2 2
3	53036 80 0 629 0 1.0120015 5 0 1 2 2
4	53116 80 0 405 0 1.0052806 5 0 1 2 2
5	53196 8 0 0 0 0 1 0 0 0 0
6	53204 8 8 8 1 1 1 0 0 0 0
7	53212 34 8 596 1 1.0111378 2 7504 259485 266989 67388775241
8	53246 11 8 8 1 1 1 7504 7504 7504 56310016
9	53257 8 8 8 1 1 1 0 0 0 0
10	53265 9 9 9 1 1 1 0 0 0 0
11	53274 36 9 641 1 1.0124818 2 7504 259821 267325 67563262057
12	53310 12 9 9 1 1 1 7504 7504 7504 56310016
13	53322 9 9 9 1 1 1 0 0 0 0
14	53331 10 10 10 1 1 1 0 0 0 0
15	53341 37 10 391 1 1.0048968 2 7504 258417 265921 66835655905
16	53378 13 10 10 1 1 1 7504 7504 7504 56310016
17	53391 10 10 10 1 1 1 0 0 0 0
18	53401 10 11 11 1 1 1 0 0 0 0
19	53411 37 11 435 1 1.0060969 2 7504 258585 266089 66922512241
20	53448 13 11 11 1 1 1 7504 7504 7504 56310016
21	53461 10 11 11 1 1 1 0 0 0 0
22	53471 10 12 12 1 1 1 0 0 0 0
23	53481 37 12 622 1 1.0118098 2 7504 259653 267157 67475990425
24	53518 13 12 12 1 1 1 7504 7504 7504 56310016
25	53531 10 12 12 1 1 1 0 0 0 0
26	53541 10 13 13 1 1 1 0 0 0 0
27	53551 37 13 654 1 1.0131538 2 7504 259989 267493 67650590137
28	53588 13 13 13 1 1 1 7504 7504 7504 56310016
29	53601 10 13 13 1 1 1 0 0 0 0
30	53611 11 14 14 1 1 1 28 28 28 784
31	53622 11 15 15 1 1 1 28 28 28 784
32	53633 11 16 16 1 1 1 28 28 28 784
33	53644 11 17 17 1 1 1 28 28 28 784
34	53655 11 18 18 1 1 1 28 28 28 784
35	53666 11 19 19 1 1 1 28 28 28 784
36	53677 31 20 209 1 1.0023044 2 28 44 72 2720
37	53708 31 21 260 1 1.0029764 2 28 44 72 2720
38	53739 31 22 225 1 1.0024004 2 28 44 72 2720
39	53770 31 23 275 1 1.0030724 2 28 44 72 2720
40	53801 31 24 226 1 1.0024004 2 28 44 72 2720
41	53832 31 25 276 1 1.0030724 2 28 44 72 2720
42	53863 31 26 210 1 1.0023044 2 46 62 108 5960
43	53894 31 26 210 1 1.0023044 2 64 64 128 8192
44	53925 58 26 210 1 1.0023044 4 0 1 2 2
45	53983 31 26 210 1 1.0023044 2 64 64 128 8192
46	54014 29 26 210 1 1.0023044 2 0 0 0 0
47	54043 31 27 261 1 1.0029764 2 46 62 108 5960
48	54074 31 27 261 1 1.0029764 2 64 64 128 8192
49	54105 58 27 261 1 1.0029764 4 0 1 2 2
50	54163 31 27 261 1 1.0029764 2 64 64 128 8192
51	54194 29 27 261 1 1.0029764 2 0 0 0 0
52	54223 31 28 227 1 1.0024004 2 46 62 108 5960
53	54254 31 28 227 1 1.0024004 2 64 64 128 8192
54	54285 58 28 227 1 1.0024004 4 0 1 2 2
55	54343 31 28 227 1 1.0024004 2 64 64 128 8192
56	54374 29 28 227 1 1.0024004 2 0 0 0 0
57	54403 31 29 277 1 1.0030724 2 46 62 108 5960
58	54434 31 29 277 1 1.0030724 2 64 64 128 8192
59	54465 58 29 277 1 1.0030724 4 0 1 2 2
60	54523 31 29 277 1 1.0030724 2 64 64 128 8192
61	54554 29 29 277 1 1.0030724 2 0 0 0 0
62	54583 31 30 228 1 1.0024004 2 46 62 108 5960
63	54614 31 30 228 1 1.0024004 2 64 64 128 8192
64	54645 58 30 228 1 1.0024004 4 0 1 2 2
65	54703 31 30 228 1 1.0024004 2 64 64 128 8192
66	54734 29 30 228 1 1.0024004 2 0 0 0 0
67	54763 31 31 278 1 1.0030724 2 46 62 108 5960
68	54794 31 31 278 1 1.0030724 2 64 64 128 8192
69	54825 58 31 278 1 1.0030724 4 0 1 2 2
70	54883 31 31 278 1 1.0030724 2 64 64 128 8192
71	54914 29 31 278 1 1.0030724 2 0 0 0 0
72	54943 38 38 251 1.000576 1.0028804 2 64 64 128 8192
73	54981 38 39 302 1.000576 1.0035524 2 64 64 128 8192
74	55019 38 40 267 1.000576 1.0030724 2 64 64 128 8192
75	55057 38 41 322 1.000576 1.0037444 2 64 64 128 8192
76	55095 38 42 268 1.000576 1.0030724 2 64 64 128 8192
77	55133 38 43 323 1.000576 1.0037444 2 64 64 128 8192
78	55171 39 44 252 1.0005761 1.0028805 2 64 64 128 8192
79	55210 39 44 252 1.0005761 1.0028805 2 64 64 128 8192
80	55249 39 45 303 1.0005761 1.0035525 2 64 64 128 8192
81	55288 39 45 303 1.0005761 1.0035525 2 64 64 128 8192
82	55327 39 46 279 1.0005761 1.0030725 2 64 64 128 8192
83	55366 39 46 279 1.0005761 1.0030725 2 64 64 128 8192
84	55405 39 47 324 1.0005761 1.0037445 2 64 64 128 8192
85	55444 39 47 324 1.0005761 1.0037445 2 64 64 128 8192
86	55483 39 48 280 1.0005761 1.0030725 2 64 64 128 8192
87	55522 39 48 280 1.0005761 1.0030725 2 64 64 128 8192
88	55561 39 49 325 1.0005761 1.0037445 2 64 64 128 8192
89	55600 39 49 325 1.0005761 1.0037445 2 64 64 128 8192
90	55639 78 56 306 1.0005761 1.0035525 4 64 64 256 16384
91	55717 78 56 306 1.0005761 1.0035525 4 64 64 256 16384
92	55795 148 56 306 1.0005761 1.0035525 8 0 1 4 4
93	55943 78 56 306 1.0005761 1.0035525 4 64 64 256 16384
94	56021 81 56 306 1.0005761 1.0035525 4 0 0.000576 0.000576 3.31776e-07
95	56102 59 57 627 1.0005761 1.0119057 3 64 64 192 12288
96	56161 59 57 627 1.0005761 1.0119057 3 64 64 192 12288
97	56220 112 57 627 1.0005761 1.0119057 6 0 1 3 3
98	56332 59 57 627 1.0005761 1.0119057 3 64 64 192 12288
99	56391 56 57 627 1.0005761 1.0119057 3 0 0 0 0
100	56447 62 59 574 1.0005761 1.0105617 3 64 64 192 12288
101	56509 62 59 574 1.0005761 1.0105617 3 64 64 192 12288
102	56571 118 59 574 1.0005761 1.0105617 6 0 1 3 3
103	56689 62 59 574 1.0005761 1.0105617 3 64 64 192 12288
104	56751 59 59 574 1.0005761 1.0105617 3 0 0 0 0
105	56810 144 60 579 1.0005761 1.0106094 7 64 64 448 28672
106	56954 144 60 579 1.0005761 1.0106094 7 64 64 448 28672
107	57098 274 60 579 1.0005761 1.0106094 14 0 1 7 7
108	57372 144 60 579 1.0005761 1.0106094 7 64 64 448 28672
109	57516 144 60 579 1.0005761 1.0106094 7 0 0.000576 0.000576 3.31776e-07
110	57660 187 61 532 1.0005761 1.0093612 9 64 64 576 36864
111	57847 187 61 532 1.0005761 1.0093612 9 64 64 576 36864
112	58034 356 61 532 1.0005761 1.0093612 18 0 1 9 9
113	58390 187 61 532 1.0005761 1.0093612 9 64 64 576 36864
114	58577 185 61 532 1.0005761 1.0093612 9 0 0.000576 0.000576 3.31776e-07
115	58762 83 62 398 1.0005761 1.0049927 4 64 64 256 16384
116	58845 83 62 398 1.0005761 1.0049927 4 64 64 256 16384
117	58928 158 62 409 1.0005761 1.0054248 8 0 1 4 4
118	59086 83 62 409 1.0005761 1.0054248 4 64 64 256 16384
119	59169 87 62 409 1.0005761 1.0054248 4 0 0.0004321 0.0004321 1.8671041e-07
120	59256 83 65 383 1.0005761 1.0048488 4 64 64 256 16384
121	59339 83 65 383 1.0005761 1.0048488 4 64 64 256 16384
122	59422 158 65 387 1.0005761 1.0048967 8 0 1 4 4
123	59580 83 65 387 1.0005761 1.0048967 4 64 64 256 16384
124	59663 86 65 387 1.0005761 1.0048967 4 0 4.79e-05 4.79e-05 2.29441e-09
125	59749 82 66 331 1.0005761 1.0037445 4 64 64 256 16384
126	59831 82 66 331 1.0005761 1.0037445 4 64 64 256 16384
127	59913 156 66 331 1.0005761 1.0037445 8 0 1 4 4
128	60069 82 66 331 1.0005761 1.0037445 4 64 64 256 16384
129	60151 85 66 331 1.0005761 1.0037445 4 0 0.000576 0.000576 3.31776e-07
130	60236 62 67 646 1.0005761 1.0125777 3 64 64 192 12288
131	60298 62 67 646 1.0005761 1.0125777 3 64 64 192 12288
132	60360 118 67 646 1.0005761 1.0125777 6 0 1 3 3
133	60478 62 67 646 1.0005761 1.0125777 3 64 64 192 12288
134	60540 59 67 646 1.0005761 1.0125777 3 0 0 0 0
135	60599 62 69 606 1.0005761 1.0112337 3 64 64 192 12288
136	60661 62 69 606 1.0005761 1.0112337 3 64 64 192 12288
137	60723 118 69 606 1.0005761 1.0112337 6 0 1 3 3
138	60841 62 69 606 1.0005761 1.0112337 3 64 64 192 12288
139	60903 59 69 606 1.0005761 1.0112337 3 0 0 0 0
140	60962 83 89 341 1.0011521 1.0041285 4 64 64 256 16384
141	61045 145 90 597 1.0011521 1.0111854 7 64 64 448 28672
142	61190 188 91 542 1.0011521 1.0099372 9 64 64 576 36864
143	61378 83 92 354 1.0011521 1.0043205 4 64 64 256 16384
144	61461 83 93 342 1.0011522 1.0041286 4 64 64 256 16384
145	61544 83 93 342 1.0011522 1.0041286 4 64 64 256 16384
146	61627 146 94 598 1.0011522 1.0111855 7 64 64 448 28672
147	61773 146 94 598 1.0011522 1.0111855 7 64 64 448 28672
148	61919 188 95 544 1.0011522 1.0099373 9 64 64 576 36864
149	62107 188 95 544 1.0011522 1.0099373 9 64 64 576 36864
150	62295 83 96 357 1.0011522 1.0043206 4 64 64 256 16384
151	62378 83 96 357 1.0011522 1.0043206 4 64 64 256 16384
152	62461 83 97 343 1.0011522 1.0041286 4 46 46 184 8464
153	62544 146 98 599 1.0011522 1.0111855 7 46 46 322 14812
154	62690 188 99 545 1.0011522 1.0099373 9 46 46 414 19044
155	62878 84 100 359 1.0011522 1.0043206 4 46 46 184 8464
156	62962 42 101 177 1.0011522 1.0018242 2 28 28 56 1568
157	63004 63 103 414 1.0011522 1.0054249 3 28 28 84 2352
158	63067 42 104 180 1.0011522 1.0018242 2 28 28 56 1568
159	63109 84 105 614 1.0011522 1.0113296 4 28 44 144 5440
160	63193 189 106 549 1.0011522 1.0099373 9 28 44 348 13968
161	63382 84 107 633 1.0011522 1.0120016 4 28 44 144 5440
162	63466 84 108 615 1.0011522 1.0113296 4 46 62 216 11920
163	63550 84 108 615 1.0011522 1.0113296 4 64 64 256 16384
164	63634 160 108 615 1.0011522 1.0113296 8 0 1 4 4
165	63794 84 108 615 1.0011522 1.0113296 4 64 64 256 16384
166	63878 80 108 615 1.0011522 1.0113296 4 0 0 0 0
167	63958 189 109 550 1.0011522 1.0099373 9 46 62 510 29412
168	64147 189 109 550 1.0011522 1.0099373 9 64 64 576 36864
169	64336 360 109 550 1.0011522 1.0099373 18 0 1 9 9
170	64696 189 109 550 1.0011522 1.0099373 9 64 64 576 36864
171	64885 180 109 550 1.0011522 1.0099373 9 0 0 0 0
172	65065 84 110 634 1.0011522 1.0120016 4 46 62 216 11920
173	65149 84 110 634 1.0011522 1.0120016 4 64 64 256 16384
174	65233 160 110 634 1.0011522 1.0120016 8 0 1 4 4
175	65393 84 110 634 1.0011522 1.0120016 4 64 64 256 16384
176	65477 80 110 634 1.0011522 1.0120016 4 0 0 0 0
177	65557 63 112 592 1.0012481 1.0111377 3 64 64 192 12288
178	65620 63 113 637 1.0012481 1.0124817 3 64 64 192 12288
179	65683 84 114 424 1.0012481 1.0055687 4 64 64 256 16384
180	65767 84 115 430 1.0012481 1.0060968 4 64 64 256 16384
181	65851 63 116 618 1.0012481 1.0118097 3 64 64 192 12288
182	65914 63 117 650 1.0012481 1.0131537 3 64 64 192 12288
183	65977 63 122 593 1.0012482 1.0111378 3 64 64 192 12288
184	66040 63 122 593 1.0012482 1.0111378 3 64 64 192 12288
185	66103 63 123 638 1.0012482 1.0124818 3 64 64 192 12288
186	66166 63 123 638 1.0012482 1.0124818 3 64 64 192 12288
187	66229 84 124 425 1.0012482 1.0055688 4 64 64 256 16384
188	66313 84 124 425 1.0012482 1.0055688 4 64 64 256 16384
189	66397 84 125 432 1.0012482 1.0060969 4 64 64 256 16384
190	66481 84 125 432 1.0012482 1.0060969 4 64 64 256 16384
191	66565 63 126 619 1.0012482 1.0118098 3 64 64 192 12288
192	66628 63 126 619 1.0012482 1.0118098 3 64 64 192 12288
193	66691 63 127 651 1.0012482 1.0131538 3 64 64 192 12288
194	66754 63 127 651 1.0012482 1.0131538 3 64 64 192 12288
195	66817 63 134 594 1.0012482 1.0111378 3 46 46 138 6348
196	66880 63 135 639 1.0012482 1.0124818 3 46 46 138 6348
197	66943 84 136 426 1.0012482 1.0055688 4 46 46 184 8464
198	67027 84 137 433 1.0012482 1.0060969 4 46 46 184 8464
199	67111 63 138 620 1.0012482 1.0118098 3 46 46 138 6348
200	67174 63 139 652 1.0012482 1.0131538 3 46 46 138 6348
201	67237 84 158 623 1.0017282 1.0119056 4 64 64 256 16384
202	67321 84 159 624 1.0017283 1.0119057 4 64 64 256 16384
203	67405 84 159 624 1.0017283 1.0119057 4 64 64 256 16384
204	67489 189 167 575 1.0018242 1.0106093 9 64 64 576 36864
205	67678 84 168 642 1.0018242 1.0125776 4 64 64 256 16384
206	67762 188 187 576 1.0018243 1.0106094 9 64 64 576 36864
207	67950 188 187 576 1.0018243 1.0106094 9 64 64 576 36864
208	68138 84 188 643 1.0018243 1.0125777 4 64 64 256 16384
209	68222 84 188 643 1.0018243 1.0125777 4 64 64 256 16384
210	68306 42 301 345 1.0034566 1.0041286 2 44 44 88 3872
211	68348 42 301 345 1.0034566 1.0041286 2 44 44 88 3872
212	68390 80 301 347 1.0034566 1.0042726 4 0 1 2 2
213	68470 42 301 347 1.0034566 1.0042726 2 44 44 88 3872
214	68512 47 301 347 1.0034566 1.0042726 2 0 0.000144 0.000144 2.0736e-08
215	68559 42 301 347 1.0034566 1.0042726 2 51 51 102 5202
216	68601 150 317 547 1.0036486 1.0099373 6 250000 250000 1500000 375000000000
217	68751 120 317 547 1.0036486 1.0099373 6 0 0 0 0
218	68871 50 317 317 1.0036486 1.0036486 2 257505 257505 515010 132617650050
219	68921 23 317 317 1.0036486 1.0036486 1 7504 7504 7504 56310016
220	68944 20 317 317 1.0036486 1.0036486 1 0 0 0 0
221	68964 23 317 317 1.0036486 1.0036486 1 7504 7504 7504 56310016
222	68987 25 317 317 1.0036486 1.0036486 1 250001 250001 250001 62500500001
223	69012 42 318 363 1.0036486 1.0043206 2 44 44 88 3872
224	69054 42 318 363 1.0036486 1.0043206 2 44 44 88 3872
225	69096 80 318 376 1.0036486 1.0044646 4 0 1 2 2
226	69176 42 318 376 1.0036486 1.0044646 2 44 44 88 3872
227	69218 47 318 376 1.0036486 1.0044646 2 0 0.000144 0.000144 2.0736e-08
228	69265 42 318 376 1.0036486 1.0044646 2 51 51 102 5202
229	69307 42 348 403 1.0042727 1.0050887 2 51 51 102 5202
230	69349 42 348 403 1.0042727 1.0050887 2 44 44 88 3872
231	69391 21 349 349 1.0042727 1.0042727 1 28 28 28 784
232	69412 105 350 451 1.0042727 1.0066731 5 28 44 204 8528
233	69517 105 351 455 1.0042727 1.0066731 5 46 62 294 17492
234	69622 105 351 455 1.0042727 1.0066731 5 64 64 320 20480
235	69727 200 351 499 1.0042727 1.0086891 10 0 3 11 21
236	69927 105 351 499 1.0042727 1.0086891 5 64 64 320 20480
237	70032 121 351 499 1.0042727 1.0086891 5 0 0.002016 0.004032 6.322176e-06
238	70153 50 362 362 1.0043206 1.0043206 2 257505 257505 515010 132617650050
239	70203 23 362 362 1.0043206 1.0043206 1 7504 7504 7504 56310016
240	70226 20 362 362 1.0043206 1.0043206 1 0 0 0 0
241	70246 23 362 362 1.0043206 1.0043206 1 7504 7504 7504 56310016
242	70269 25 362 362 1.0043206 1.0043206 1 250001 250001 250001 62500500001
243	70294 42 377 406 1.0044647 1.0052807 2 51 51 102 5202
244	70336 42 377 406 1.0044647 1.0052807 2 44 44 88 3872
245	70378 105 379 528 1.0048487 1.0093611 5 64 64 320 20480
246	70483 105 380 529 1.0048488 1.0093612 5 64 64 320 20480
247	70588 105 380 529 1.0048488 1.0093612 5 64 64 320 20480
248	70693 25 391 391 1.0048968 1.0048968 1 250912 250912 250912 62956831744
249	70718 25 391 391 1.0048968 1.0048968 1 250001 250001 250001 62500500001
250	70743 23 391 391 1.0048968 1.0048968 1 7504 7504 7504 56310016
251	70766 25 435 435 1.0060969 1.0060969 1 251080 251080 251080 63041166400
252	70791 25 435 435 1.0060969 1.0060969 1 250001 250001 250001 62500500001
253	70816 23 435 435 1.0060969 1.0060969 1 7504 7504 7504 56310016
254	70839 50 471 471 1.0079213 1.0079213 2 257505 257505 515010 132617650050
255	70889 23 471 471 1.0079213 1.0079213 1 7504 7504 7504 56310016
256	70912 20 471 471 1.0079213 1.0079213 1 0 0 0 0
257	70932 23 471 471 1.0079213 1.0079213 1 7504 7504 7504 56310016
258	70955 25 471 471 1.0079213 1.0079213 1 250001 250001 250001 62500500001
259	70980 50 491 491 1.0085933 1.0085933 2 257505 257505 515010 132617650050
260	71030 23 491 491 1.0085933 1.0085933 1 7504 7504 7504 56310016
261	71053 20 491 491 1.0085933 1.0085933 1 0 0 0 0
262	71073 23 491 491 1.0085933 1.0085933 1 7504 7504 7504 56310016
263	71096 25 491 491 1.0085933 1.0085933 1 250001 250001 250001 62500500001
264	71121 42 513 570 1.0091695 1.0105135 2 44 44 88 3872
265	71163 42 513 570 1.0091695 1.0105135 2 44 44 88 3872
266	71205 80 513 570 1.0091695 1.0105135 4 0 1 2 2
267	71285 42 513 570 1.0091695 1.0105135 2 44 44 88 3872
268	71327 40 513 570 1.0091695 1.0105135 2 0 0 0 0
269	71367 42 513 570 1.0091695 1.0105135 2 51 51 102 5202
270	71409 50 519 519 1.0092653 1.0092653 2 257505 257505 515010 132617650050
271	71459 23 519 519 1.0092653 1.0092653 1 7504 7504 7504 56310016
272	71482 20 519 519 1.0092653 1.0092653 1 0 0 0 0
273	71502 23 519 519 1.0092653 1.0092653 1 7504 7504 7504 56310016
274	71525 25 519 519 1.0092653 1.0092653 1 250001 250001 250001 62500500001
275	71550 42 541 601 1.0098415 1.0111855 2 44 44 88 3872
276	71592 42 541 601 1.0098415 1.0111855 2 44 44 88 3872
277	71634 80 541 601 1.0098415 1.0111855 4 0 1 2 2
278	71714 42 541 601 1.0098415 1.0111855 2 44 44 88 3872
279	71756 40 541 601 1.0098415 1.0111855 2 0 0 0 0
280	71796 42 541 601 1.0098415 1.0111855 2 51 51 102 5202
281	71838 50 547 547 1.0099373 1.0099373 2 257505 257505 515010 132617650050
282	71888 23 547 547 1.0099373 1.0099373 1 7504 7504 7504 56310016
283	71911 20 547 547 1.0099373 1.0099373 1 0 0 0 0
284	71931 23 547 547 1.0099373 1.0099373 1 7504 7504 7504 56310016
285	71954 25 547 547 1.0099373 1.0099373 1 250001 250001 250001 62500500001
286	71979 42 558 611 1.0099856 1.0113296 2 51 51 102 5202
287	72021 42 558 611 1.0099856 1.0113296 2 44 44 88 3872
288	72063 42 583 630 1.0106576 1.0120016 2 51 51 102 5202
289	72105 42 583 630 1.0106576 1.0120016 2 44 44 88 3872
290	72147 25 596 596 1.0111378 1.0111378 1 251980 251980 251980 63493920400
291	72172 25 596 596 1.0111378 1.0111378 1 250001 250001 250001 62500500001
292	72197 23 596 596 1.0111378 1.0111378 1 7504 7504 7504 56310016
293	72220 25 622 622 1.0118098 1.0118098 1 252148 252148 252148 63578613904
294	72245 25 622 622 1.0118098 1.0118098 1 250001 250001 250001 62500500001
295	72270 23 622 622 1.0118098 1.0118098 1 7504 7504 7504 56310016
296	72293 25 641 641 1.0124818 1.0124818 1 252316 252316 252316 63663363856
297	72318 25 641 641 1.0124818 1.0124818 1 250001 250001 250001 62500500001
298	72343 23 641 641 1.0124818 1.0124818 1 7504 7504 7504 56310016
299	72366 25 654 654 1.0131538 1.0131538 1 252484 252484 252484 63748170256
300	72391 25 654 654 1.0131538 1.0131538 1 250001 250001 250001 62500500001
301	72416 23 654 654 1.0131538 1.0131538 1 7504 7504 7504 56310016
vector 302 TcpSynAttack.服务器.tcp.conn-19 rcvSeq:vector ETV
attr interpolationmode sample-hold
vector 303 TcpSynAttack.服务器.tcp.conn-19 rcvAck:vector ETV
attr interpolationmode sample-hold
vector 304 TcpSynAttack.服务器.tcp.conn-19 rcvNASeg:vector ETV
attr interpolationmode sample-hold
vector 305 TcpSynAttack.服务器.tcp.conn-20 rcvSeq:vector ETV
attr interpolationmode sample-hold
vector 306 TcpSynAttack.服务器.tcp.conn-20 rcvAck:vector ETV
attr interpolationmode sample-hold
vector 307 TcpSynAttack.服务器.tcp.conn-20 rcvNASeg:vector ETV
attr interpolationmode sample-hold
vector 308 TcpSynAttack.服务器.tcp.conn-21 rcvSeq:vector ETV
attr interpolationmode sample-hold
vector 309 TcpSynAttack.服务器.tcp.conn-21 rcvAck:vector ETV
attr interpolationmode sample-hold
vector 310 TcpSynAttack.服务器.tcp.conn-21 rcvNASeg:vector ETV
attr interpolationmode sample-hold
vector 311 TcpSynAttack.服务器.tcp.conn-22 rcvSeq:vector ETV
attr interpolationmode sample-hold
vector 312 TcpSynAttack.服务器.tcp.conn-22 rcvAck:vector ETV
attr interpolationmode sample-hold
vector 313 TcpSynAttack.服务器.tcp.conn-22 rcvNASeg:vector ETV
attr interpolationmode sample-hold
vector 314 TcpSynAttack.服务器.tcp.conn-23 rcvSeq:vector ETV
attr interpolationmode sample-hold
vector 315 TcpSynAttack.服务器.tcp.conn-23 rcvAck:vector ETV
attr interpolationmode sample-hold
vector 316 TcpSynAttack.服务器.tcp.conn-23 rcvNASeg:vector ETV
attr interpolationmode sample-hold
vector 317 TcpSynAttack.服务器.tcp.conn-24 rcvSeq:vector ETV
attr interpolationmode sample-hold
vector 318 TcpSynAttack.服务器.tcp.conn-24 rcvAck:vector ETV
attr interpolationmode sample-hold
vector 319 TcpSynAttack.服务器.tcp.conn-24 rcvNASeg:vector ETV
attr interpolationmode sample-hold
0	74233 72 737 813 4.0011522 4.0027842 4 0 1 2 2
2	74305 36 884 914 4.0044166 4.0051686 2 0 1 1 1
3	74341 36 946 970 4.0057606 4.0065126 2 0 1 1 1
4	74377 72 739 814 4.0011522 4.0027842 4 0 1 2 2
6	74449 10 657 657 4 4 1 0 0 0 0
7	74459 15 657 657 4 4 1 259485 259485 259485 67332465225
8	74474 13 657 657 4 4 1 7504 7504 7504 56310016
9	74487 10 657 657 4 4 1 0 0 0 0
10	74497 11 658 658 4 4 1 0 0 0 0
11	74508 16 658 658 4 4 1 259821 259821 259821 67506952041
12	74524 14 658 658 4 4 1 7504 7504 7504 56310016
13	74538 11 658 658 4 4 1 0 0 0 0
14	74549 11 659 659 4 4 1 0 0 0 0
15	74560 40 659 913 4 4.0050886 2 258417 258417 516834 133558691778
16	74600 14 659 659 4 4 1 7504 7504 7504 56310016
17	74614 11 659 659 4 4 1 0 0 0 0
18	74625 11 660 660 4 4 1 0 0 0 0
19	74636 40 660 969 4 4.0064326 2 258585 258585 517170 133732404450
20	74676 14 660 660 4 4 1 7504 7504 7504 56310016
21	74690 11 660 660 4 4 1 0 0 0 0
22	74701 11 661 661 4 4 1 0 0 0 0
23	74712 16 661 661 4 4 1 259653 259653 259653 67419680409
24	74728 14 661 661 4 4 1 7504 7504 7504 56310016
25	74742 11 661 661 4 4 1 0 0 0 0
26	74753 11 662 662 4 4 1 0 0 0 0
27	74764 16 662 662 4 4 1 259989 259989 259989 67594280121
28	74780 14 662 662 4 4 1 7504 7504 7504 56310016
29	74794 11 662 662 4 4 1 0 0 0 0
36	74805 12 669 669 4 4 1 44 44 44 1936
37	74817 12 670 670 4 4 1 44 44 44 1936
38	74829 12 671 671 4 4 1 44 44 44 1936
39	74841 12 672 672 4 4 1 44 44 44 1936
40	74853 12 673 673 4 4 1 44 44 44 1936
41	74865 12 674 674 4 4 1 44 44 44 1936
42	74877 12 675 675 4 4 1 62 62 62 3844
43	74889 12 675 675 4 4 1 64 64 64 4096
44	74901 22 675 675 4 4 2 0 1 1 1
45	74923 12 675 675 4 4 1 64 64 64 4096
46	74935 11 675 675 4 4 1 0 0 0 0
47	74946 12 676 676 4 4 1 62 62 62 3844
48	74958 12 676 676 4 4 1 64 64 64 4096
49	74970 22 676 676 4 4 2 0 1 1 1
50	74992 12 676 676 4 4 1 64 64 64 4096
51	75004 11 676 676 4 4 1 0 0 0 0
52	75015 12 677 677 4 4 1 62 62 62 3844
53	75027 12 677 677 4 4 1 64 64 64 4096
54	75039 22 677 677 4 4 2 0 1 1 1
55	75061 12 677 677 4 4 1 64 64 64 4096
56	75073 11 677 677 4 4 1 0 0 0 0
57	75084 12 678 678 4 4 1 62 62 62 3844
58	75096 12 678 678 4 4 1 64 64 64 4096
59	75108 22 678 678 4 4 2 0 1 1 1
60	75130 12 678 678 4 4 1 64 64 64 4096
61	75142 11 678 678 4 4 1 0 0 0 0
62	75153 12 679 679 4 4 1 62 62 62 3844
63	75165 12 679 679 4 4 1 64 64 64 4096
64	75177 22 679 679 4 4 2 0 1 1 1
65	75199 12 679 679 4 4 1 64 64 64 4096
66	75211 11 679 679 4 4 1 0 0 0 0
67	75222 12 680 680 4 4 1 62 62 62 3844
68	75234 12 680 680 4 4 1 64 64 64 4096
69	75246 22 680 680 4 4 2 0 1 1 1
70	75268 12 680 680 4 4 1 64 64 64 4096
71	75280 11 680 680 4 4 1 0 0 0 0
72	75291 19 687 687 4.000576 4.000576 1 64 64 64 4096
73	75310 19 688 688 4.000576 4.000576 1 64 64 64 4096
74	75329 19 689 689 4.000576 4.000576 1 64 64 64 4096
75	75348 19 690 690 4.000576 4.000576 1 64 64 64 4096
76	75367 19 691 691 4.000576 4.000576 1 64 64 64 4096
77	75386 19 692 692 4.000576 4.000576 1 64 64 64 4096
78	75405 20 693 693 4.0005761 4.0005761 1 64 64 64 4096
79	75425 20 693 693 4.0005761 4.0005761 1 64 64 64 4096
80	75445 20 694 694 4.0005761 4.0005761 1 64 64 64 4096
81	75465 20 694 694 4.0005761 4.0005761 1 64 64 64 4096
82	75485 20 695 695 4.0005761 4.0005761 1 64 64 64 4096
83	75505 20 695 695 4.0005761 4.0005761 1 64 64 64 4096
84	75525 20 696 696 4.0005761 4.0005761 1 64 64 64 4096
85	75545 20 696 696 4.0005761 4.0005761 1 64 64 64 4096
86	75565 20 697 697 4.0005761 4.0005761 1 64 64 64 4096
87	75585 20 697 697 4.0005761 4.0005761 1 64 64 64 4096
88	75605 20 698 698 4.0005761 4.0005761 1 64 64 64 4096
89	75625 20 698 698 4.0005761 4.0005761 1 64 64 64 4096
90	75645 40 705 706 4.0005761 4.0005761 2 64 64 128 8192
91	75685 40 705 706 4.0005761 4.0005761 2 64 64 128 8192
92	75725 76 705 725 4.0005761 4.0011521 4 0 1 2 2
93	75801 40 705 725 4.0005761 4.0011521 2 64 64 128 8192
94	75841 45 705 725 4.0005761 4.0011521 2 0 0.000576 0.000576 3.31776e-07
100	75886 21 941 941 4.0057448 4.0057448 1 64 64 64 4096
101	75907 21 941 941 4.0057448 4.0057448 1 64 64 64 4096
102	75928 40 941 941 4.0057448 4.0057448 2 0 1 1 1
103	75968 21 941 941 4.0057448 4.0057448 1 64 64 64 4096
104	75989 20 941 941 4.0057448 4.0057448 1 0 0 0 0
105	76009 42 864 932 4.0038405 4.0051845 2 64 64 128 8192
106	76051 42 864 932 4.0038405 4.0051845 2 64 64 128 8192
107	76093 80 864 932 4.0038405 4.0051845 4 0 1 2 2
108	76173 42 864 932 4.0038405 4.0051845 2 64 64 128 8192
109	76215 40 864 932 4.0038405 4.0051845 2 0 0 0 0
110	76255 126 707 902 4.0005761 4.0045604 6 64 64 384 24576
111	76381 126 707 902 4.0005761 4.0045604 6 64 64 384 24576
112	76507 240 707 902 4.0005761 4.0045604 12 0 1 6 6
113	76747 126 707 902 4.0005761 4.0045604 6 64 64 384 24576
114	76873 127 707 902 4.0005761 4.0045604 6 0 0.000576 0.000576 3.31776e-07
115	77000 42 800 953 4.0024963 4.0058565 2 64 64 128 8192
116	77042 42 800 953 4.0024963 4.0058565 2 64 64 128 8192
117	77084 80 800 953 4.0024963 4.0058565 4 0 1 2 2
118	77164 42 800 953 4.0024963 4.0058565 2 64 64 128 8192
119	77206 40 800 953 4.0024963 4.0058565 2 0 0 0 0
120	77246 42 772 897 4.0018243 4.0045125 2 64 64 128 8192
121	77288 42 772 897 4.0018243 4.0045125 2 64 64 128 8192
122	77330 80 772 897 4.0018243 4.0045125 4 0 1 2 2
123	77410 42 772 897 4.0018243 4.0045125 2 64 64 128 8192
124	77452 40 772 897 4.0018243 4.0045125 2 0 0 0 0
125	77492 42 709 710 4.0005761 4.0005761 2 64 64 128 8192
126	77534 42 709 710 4.0005761 4.0005761 2 64 64 128 8192
127	77576 80 709 727 4.0005761 4.0011521 4 0 1 2 2
128	77656 42 709 727 4.0005761 4.0011521 2 64 64 128 8192
129	77698 47 709 727 4.0005761 4.0011521 2 0 0.000576 0.000576 3.31776e-07
140	77745 42 725 751 4.0011521 4.0018241 2 64 64 128 8192
141	77787 42 880 942 4.0044165 4.0057605 2 64 64 128 8192
142	77829 126 726 920 4.0011521 4.0051843 6 64 64 384 24576
143	77955 42 727 753 4.0011521 4.0018241 2 64 64 128 8192
144	77997 42 728 754 4.0011522 4.0018242 2 64 64 128 8192
145	78039 42 728 754 4.0011522 4.0018242 2 64 64 128 8192
146	78081 42 881 943 4.0044166 4.0057606 2 64 64 128 8192
147	78123 42 881 943 4.0044166 4.0057606 2 64 64 128 8192
148	78165 126 729 922 4.0011522 4.0051844 6 64 64 384 24576
149	78291 126 729 922 4.0011522 4.0051844 6 64 64 384 24576
150	78417 42 730 757 4.0011522 4.0018242 2 64 64 128 8192
151	78459 42 730 757 4.0011522 4.0018242 2 64 64 128 8192
152	78501 42 731 758 4.0011522 4.0018242 2 46 46 92 4232
153	78543 42 882 944 4.0044166 4.0057606 2 46 46 92 4232
154	78585 126 732 923 4.0011522 4.0051844 6 46 46 276 12696
155	78711 42 733 760 4.0011522 4.0018242 2 46 46 92 4232
159	78753 21 917 917 4.0051687 4.0051687 1 40 40 40 1600
160	78774 168 741 927 4.0011522 4.0051844 8 40 44 328 13472
161	78942 21 973 973 4.0065127 4.0065127 1 40 40 40 1600
162	78963 21 918 918 4.0051687 4.0051687 1 58 58 58 3364
163	78984 21 918 918 4.0051687 4.0051687 1 64 64 64 4096
164	79005 40 918 918 4.0051687 4.0051687 2 0 1 1 1
165	79045 21 918 918 4.0051687 4.0051687 1 64 64 64 4096
166	79066 20 918 918 4.0051687 4.0051687 1 0 0 0 0
167	79086 168 742 928 4.0011522 4.0051844 8 58 62 472 27872
168	79254 168 742 928 4.0011522 4.0051844 8 64 64 512 32768
169	79422 320 742 976 4.0011522 4.0065284 16 0 2 14 20
170	79742 168 742 976 4.0011522 4.0065284 8 64 64 512 32768
171	79910 197 742 976 4.0011522 4.0065284 8 0 0.001344 0.0044156 4.84719368e-06
172	80107 21 974 974 4.0065127 4.0065127 1 58 58 58 3364
173	80128 21 974 974 4.0065127 4.0065127 1 64 64 64 4096
174	80149 40 974 974 4.0065127 4.0065127 2 0 1 1 1
175	80189 21 974 974 4.0065127 4.0065127 1 64 64 64 4096
176	80210 20 974 974 4.0065127 4.0065127 1 0 0 0 0
177	80230 21 959 959 4.0063208 4.0063208 1 64 64 64 4096
179	80251 42 791 909 4.0024003 4.0050885 2 64 64 128 8192
180	80293 42 823 965 4.0030723 4.0064325 2 64 64 128 8192
183	80335 21 960 960 4.0063209 4.0063209 1 64 64 64 4096
184	80356 21 960 960 4.0063209 4.0063209 1 64 64 64 4096
187	80377 42 792 910 4.0024004 4.0050886 2 64 64 128 8192
188	80419 42 792 910 4.0024004 4.0050886 2 64 64 128 8192
189	80461 42 824 966 4.0030724 4.0064326 2 64 64 128 8192
190	80503 42 824 966 4.0030724 4.0064326 2 64 64 128 8192
195	80545 21 961 961 4.0063209 4.0063209 1 46 46 46 2116
197	80566 42 793 911 4.0024004 4.0050886 2 46 46 92 4232
198	80608 42 825 967 4.0030724 4.0064326 2 46 46 92 4232
201	80650 21 938 938 4.0057447 4.0057447 1 64 64 64 4096
202	80671 21 939 939 4.0057448 4.0057448 1 64 64 64 4096
203	80692 21 939 939 4.0057448 4.0057448 1 64 64 64 4096
204	80713 147 755 976 4.0018242 4.0065284 7 64 64 448 28672
206	80860 126 770 950 4.0018243 4.0058565 6 64 64 384 24576
207	80986 126 770 950 4.0018243 4.0058565 6 64 64 384 24576
210	81112 42 737 764 4.0011522 4.0018242 2 44 44 88 3872
211	81154 42 737 764 4.0011522 4.0018242 2 44 44 88 3872
212	81196 80 737 780 4.0011522 4.0019682 4 0 1 2 2
213	81276 42 737 780 4.0011522 4.0019682 2 44 44 88 3872
214	81318 47 737 780 4.0011522 4.0019682 2 0 0.000144 0.000144 2.0736e-08
215	81365 42 737 780 4.0011522 4.0019682 2 51 51 102 5202
218	81407 50 738 849 4.0011522 4.0036486 2 257505 257505 515010 132617650050
220	81457 40 738 849 4.0011522 4.0036486 2 0 0 0 0
221	81497 46 738 849 4.0011522 4.0036486 2 7504 7504 15008 112620032
222	81543 50 738 849 4.0011522 4.0036486 2 250001 250001 500002 125001000002
223	81593 42 739 766 4.0011522 4.0018242 2 44 44 88 3872
224	81635 42 739 766 4.0011522 4.0018242 2 44 44 88 3872
225	81677 80 739 781 4.0011522 4.0019682 4 0 1 2 2
226	81757 42 739 781 4.0011522 4.0019682 2 44 44 88 3872
227	81799 47 739 781 4.0011522 4.0019682 2 0 0.000144 0.000144 2.0736e-08
228	81846 42 739 781 4.0011522 4.0019682 2 51 51 102 5202
229	81888 42 782 815 4.0019683 4.0027843 2 51 51 102 5202
230	81930 42 782 815 4.0019683 4.0027843 2 44 44 88 3872
232	81972 84 786 820 4.0019683 4.0027843 4 44 44 176 7744
233	82056 84 788 822 4.0019683 4.0027843 4 62 62 248 15376
234	82140 84 788 822 4.0019683 4.0027843 4 64 64 256 16384
235	82224 160 788 866 4.0019683 4.0038883 8 0 2 6 8
236	82384 84 788 866 4.0019683 4.0038883 4 64 64 256 16384
237	82468 101 788 866 4.0019683 4.0038883 4 0 0.001104 0.002112 1.737216e-06
238	82569 50 765 876 4.0018242 4.0043206 2 257505 257505 515010 132617650050
240	82619 40 765 876 4.0018242 4.0043206 2 0 0 0 0
241	82659 46 765 876 4.0018242 4.0043206 2 7504 7504 15008 112620032
242	82705 50 765 876 4.0018242 4.0043206 2 250001 250001 500002 125001000002
243	82755 42 783 816 4.0019683 4.0027843 2 51 51 102 5202
244	82797 42 783 816 4.0019683 4.0027843 2 44 44 88 3872
245	82839 84 803 899 4.0025443 4.0045603 4 64 64 256 16384
246	82923 84 804 900 4.0025444 4.0045604 4 64 64 256 16384
247	83007 84 804 900 4.0025444 4.0045604 4 64 64 256 16384
248	83091 50 795 913 4.0024004 4.0050886 2 250912 250913 501825 125914165313
249	83141 50 795 913 4.0024004 4.0050886 2 250001 250001 500002 125001000002
250	83191 23 913 913 4.0050886 4.0050886 1 7504 7504 7504 56310016
251	83214 50 827 969 4.0030724 4.0064326 2 251080 251081 502161 126082834961
252	83264 50 827 969 4.0030724 4.0064326 2 250001 250001 500002 125001000002
253	83314 23 969 969 4.0064326 4.0064326 1 7504 7504 7504 56310016
254	83337 25 834 834 4.0031684 4.0031684 1 257505 257505 257505 66308825025
256	83362 20 834 834 4.0031684 4.0031684 1 0 0 0 0
257	83382 23 834 834 4.0031684 4.0031684 1 7504 7504 7504 56310016
258	83405 25 834 834 4.0031684 4.0031684 1 250001 250001 250001 62500500001
259	83430 25 858 858 4.0038404 4.0038404 1 257505 257505 257505 66308825025
261	83455 20 858 858 4.0038404 4.0038404 1 0 0 0 0
262	83475 23 858 858 4.0038404 4.0038404 1 7504 7504 7504 56310016
263	83498 25 858 858 4.0038404 4.0038404 1 250001 250001 250001 62500500001
264	83523 21 884 884 4.0044166 4.0044166 1 40 40 40 1600
265	83544 21 884 884 4.0044166 4.0044166 1 40 40 40 1600
266	83565 40 884 884 4.0044166 4.0044166 2 0 1 1 1
267	83605 21 884 884 4.0044166 4.0044166 1 40 40 40 1600
268	83626 20 884 884 4.0044166 4.0044166 1 0 0 0 0
269	83646 21 884 884 4.0044166 4.0044166 1 47 47 47 2209
270	83667 25 890 890 4.0045124 4.0045124 1 257505 257505 257505 66308825025
272	83692 20 890 890 4.0045124 4.0045124 1 0 0 0 0
273	83712 23 890 890 4.0045124 4.0045124 1 7504 7504 7504 56310016
274	83735 25 890 890 4.0045124 4.0045124 1 250001 250001 250001 62500500001
275	83760 21 946 946 4.0057606 4.0057606 1 40 40 40 1600
276	83781 21 946 946 4.0057606 4.0057606 1 40 40 40 1600
277	83802 40 946 946 4.0057606 4.0057606 2 0 1 1 1
278	83842 21 946 946 4.0057606 4.0057606 1 40 40 40 1600
279	83863 20 946 946 4.0057606 4.0057606 1 0 0 0 0
280	83883 21 946 946 4.0057606 4.0057606 1 47 47 47 2209
281	83904 25 925 925 4.0051844 4.0051844 1 257505 257505 257505 66308825025
283	83929 20 925 925 4.0051844 4.0051844 1 0 0 0 0
284	83949 23 925 925 4.0051844 4.0051844 1 7504 7504 7504 56310016
285	83972 25 925 925 4.0051844 4.0051844 1 250001 250001 250001 62500500001
286	83997 21 915 915 4.0051687 4.0051687 1 47 47 47 2209
287	84018 21 915 915 4.0051687 4.0051687 1 40 40 40 1600
288	84039 21 971 971 4.0065127 4.0065127 1 47 47 47 2209
289	84060 21 971 971 4.0065127 4.0065127 1 40 40 40 1600
290	84081 25 963 963 4.0063209 4.0063209 1 251981 251981 251981 63494424361
291	84106 25 963 963 4.0063209 4.0063209 1 250001 250001 250001 62500500001
302	84131 25 738 738 4.0011522 4.0011522 1 250000 250000 250000 62500000000
303	84156 20 738 738 4.0011522 4.0011522 1 0 0 0 0
304	84176 20 738 738 4.0011522 4.0011522 1 1 1 1 1
305	84196 25 765 765 4.0018242 4.0018242 1 250000 250000 250000 62500000000
306	84221 20 765 765 4.0018242 4.0018242 1 0 0 0 0
307	84241 20 765 765 4.0018242 4.0018242 1 1 1 1 1
308	84261 25 834 834 4.0031684 4.0031684 1 250000 250000 250000 62500000000
309	84286 20 834 834 4.0031684 4.0031684 1 0 0 0 0
310	84306 20 834 834 4.0031684 4.0031684 1 1 1 1 1
311	84326 25 858 858 4.0038404 4.0038404 1 250000 250000 250000 62500000000
312	84351 20 858 858 4.0038404 4.0038404 1 0 0 0 0
313	84371 20 858 858 4.0038404 4.0038404 1 1 1 1 1
314	84391 25 890 890 4.0045124 4.0045124 1 250000 250000 250000 62500000000
315	84416 20 890 890 4.0045124 4.0045124 1 0 0 0 0
316	84436 20 890 890 4.0045124 4.0045124 1 1 1 1 1
317	84456 25 925 925 4.0051844 4.0051844 1 250000 250000 250000 62500000000
318	84481 20 925 925 4.0051844 4.0051844 1 0 0 0 0
319	84501 20 925 925 4.0051844 4.0051844 1 1 1 1 1

