file 39658 1647590520                                           
version 2
run General-0-20220318-15:59:28-118245
attr configname General
attr datetime 20220318-15:59:28
attr experiment General
attr inifile SimpleDropping.ini
attr iterationvars ""
attr iterationvarsf ""
attr measurement ""
attr network SimpleDropping
attr processid 118245
attr repetition 0
attr replication #0
attr resultdir results
attr runnumber 0
attr seedset 0
param *.numHosts 2
param *.client[*].numApps 1
param *.client[*].app[0].typename "\"TcpSessionApp\""
param *.client[*].app[0].connectAddress "\"server\""
param *.server.numApps 1
param *.server.app[0].typename "\"TcpEchoApp\""
param *.server.ipv4.ip.typename "\"DSAK_Ipv4\""
param **.server.droppingAttack.active true
param **.server.droppingAttack.startTime 0s
param **.server.droppingAttack.endTime 50s
param **.server.droppingAttack.droppingAttackProbability 0.8
param *.visualizer.*.packetDropVisualizer.displayPacketDrops true
param *.visualizer.*.packetDropVisualizer.labelFormat "\"name: %n; reason: %r;\""
param *.visualizer.*.packetDropVisualizer.fadeOutTime 3s

vector 0 SimpleDropping.client[0].tcp.conn-3 tcpRcvQueueBytes:vector ETV
attr interpolationmode sample-hold
vector 1 SimpleDropping.client[0].tcp.conn-3 rcvAdv:vector ETV
attr interpolationmode sample-hold
vector 2 SimpleDropping.client[0].tcp.conn-3 rcvWnd:vector ETV
attr interpolationmode sample-hold
vector 3 SimpleDropping.client[0].tcp.conn-3 sndAck:vector ETV
attr interpolationmode sample-hold
vector 4 SimpleDropping.client[1].tcp.conn-4 tcpRcvQueueBytes:vector ETV
attr interpolationmode sample-hold
vector 5 SimpleDropping.client[1].tcp.conn-4 rcvAdv:vector ETV
attr interpolationmode sample-hold
vector 6 SimpleDropping.client[1].tcp.conn-4 rcvWnd:vector ETV
attr interpolationmode sample-hold
vector 7 SimpleDropping.client[1].tcp.conn-4 sndAck:vector ETV
attr interpolationmode sample-hold
vector 8 SimpleDropping.client[0].ipv4.arp arpRequestSent:vector(packetBytes) ETV
attr source arpRequestSent
attr title "ARP request sent, vector(packetBytes)"
vector 9 SimpleDropping.client[1].ipv4.arp arpRequestSent:vector(packetBytes) ETV
attr source arpRequestSent
attr title "ARP request sent, vector(packetBytes)"
vector 10 SimpleDropping.client[0].eth[0].encap encapPk:vector(packetBytes) ETV
attr interpolationmode none
attr source encapPk
attr title "packets encapsulated, vector(packetBytes)"
vector 11 SimpleDropping.client[1].eth[0].encap encapPk:vector(packetBytes) ETV
attr interpolationmode none
attr source encapPk
attr title "packets encapsulated, vector(packetBytes)"
vector 12 SimpleDropping.client[0].eth[0].mac packetReceivedFromUpper:vector(packetBytes) ETV
attr interpolationmode none
attr source packetReceivedFromUpper
attr title "packet bytes from higher layer, vector(packetBytes)"
vector 13 SimpleDropping.client[0].eth[0].mac.queue packetPushed:vector(packetBytes) ETV
attr interpolationmode none
attr title "packet pushed, vector(packetBytes)"
vector 14 SimpleDropping.client[0].eth[0].mac.queue queueLength:vector ETV
attr interpolationmode sample-hold
attr source "count(packetPushed) - count(packetPopped) - count(packetRemoved) - count(packetDropped)"
attr title "queue length, vector"
vector 15 SimpleDropping.client[0].eth[0].mac.queue packetPopped:vector(packetBytes) ETV
attr interpolationmode none
attr title "packet popped, vector(packetBytes)"
vector 16 SimpleDropping.client[0].eth[0].mac.queue queueingTime:vector ETV
attr interpolationmode none
attr source queueingTime(packetPopped)
attr title "queueing times, vector"
attr unit s
vector 17 SimpleDropping.client[1].eth[0].mac packetReceivedFromUpper:vector(packetBytes) ETV
attr interpolationmode none
attr source packetReceivedFromUpper
attr title "packet bytes from higher layer, vector(packetBytes)"
vector 18 SimpleDropping.client[1].eth[0].mac.queue packetPushed:vector(packetBytes) ETV
attr interpolationmode none
attr title "packet pushed, vector(packetBytes)"
vector 19 SimpleDropping.client[1].eth[0].mac.queue queueLength:vector ETV
attr interpolationmode sample-hold
attr source "count(packetPushed) - count(packetPopped) - count(packetRemoved) - count(packetDropped)"
attr title "queue length, vector"
vector 20 SimpleDropping.client[1].eth[0].mac.queue packetPopped:vector(packetBytes) ETV
attr interpolationmode none
attr title "packet popped, vector(packetBytes)"
vector 21 SimpleDropping.client[1].eth[0].mac.queue queueingTime:vector ETV
attr interpolationmode none
attr source queueingTime(packetPopped)
attr title "queueing times, vector"
attr unit s
vector 22 SimpleDropping.client[0].eth[0].mac txPk:vector(packetBytes) ETV
attr interpolationmode none
attr source packetSentToLower
attr title "packets transmitted, vector(packetBytes)"
vector 23 SimpleDropping.client[1].eth[0].mac txPk:vector(packetBytes) ETV
attr interpolationmode none
attr source packetSentToLower
attr title "packets transmitted, vector(packetBytes)"
vector 24 SimpleDropping.switch.eth[0].mac rxPkOk:vector(packetBytes) ETV
attr interpolationmode none
attr source rxPkOk
attr title "packets received OK, vector(packetBytes)"
vector 25 SimpleDropping.switch.eth[0].mac passedUpPk:vector(packetBytes) ETV
attr interpolationmode none
attr source packetSentToUpper
attr title "packets passed to higher layer, vector(packetBytes)"
vector 26 SimpleDropping.switch.eth[1].mac rxPkOk:vector(packetBytes) ETV
attr interpolationmode none
attr source rxPkOk
attr title "packets received OK, vector(packetBytes)"
vector 27 SimpleDropping.switch.eth[1].mac passedUpPk:vector(packetBytes) ETV
attr interpolationmode none
attr source packetSentToUpper
attr title "packets passed to higher layer, vector(packetBytes)"
vector 28 SimpleDropping.switch.eth[1].mac packetReceivedFromUpper:vector(packetBytes) ETV
attr interpolationmode none
attr source packetReceivedFromUpper
attr title "packet bytes from higher layer, vector(packetBytes)"
vector 29 SimpleDropping.switch.eth[1].mac.queue packetPushed:vector(packetBytes) ETV
attr interpolationmode none
attr title "packet pushed, vector(packetBytes)"
vector 30 SimpleDropping.switch.eth[1].mac.queue queueLength:vector ETV
attr interpolationmode sample-hold
attr source "count(packetPushed) - count(packetPopped) - count(packetRemoved) - count(packetDropped)"
attr title "queue length, vector"
vector 31 SimpleDropping.switch.eth[1].mac.queue packetPopped:vector(packetBytes) ETV
attr interpolationmode none
attr title "packet popped, vector(packetBytes)"
vector 32 SimpleDropping.switch.eth[1].mac.queue queueingTime:vector ETV
attr interpolationmode none
attr source queueingTime(packetPopped)
attr title "queueing times, vector"
attr unit s
vector 33 SimpleDropping.switch.eth[2].mac packetReceivedFromUpper:vector(packetBytes) ETV
attr interpolationmode none
attr source packetReceivedFromUpper
attr title "packet bytes from higher layer, vector(packetBytes)"
vector 34 SimpleDropping.switch.eth[2].mac.queue packetPushed:vector(packetBytes) ETV
attr interpolationmode none
attr title "packet pushed, vector(packetBytes)"
vector 35 SimpleDropping.switch.eth[2].mac.queue queueLength:vector ETV
attr interpolationmode sample-hold
attr source "count(packetPushed) - count(packetPopped) - count(packetRemoved) - count(packetDropped)"
attr title "queue length, vector"
vector 36 SimpleDropping.switch.eth[2].mac.queue packetPopped:vector(packetBytes) ETV
attr interpolationmode none
attr title "packet popped, vector(packetBytes)"
vector 37 SimpleDropping.switch.eth[2].mac.queue queueingTime:vector ETV
attr interpolationmode none
attr source queueingTime(packetPopped)
attr title "queueing times, vector"
attr unit s
vector 38 SimpleDropping.switch.eth[0].mac packetReceivedFromUpper:vector(packetBytes) ETV
attr interpolationmode none
attr source packetReceivedFromUpper
attr title "packet bytes from higher layer, vector(packetBytes)"
vector 39 SimpleDropping.switch.eth[0].mac.queue packetPushed:vector(packetBytes) ETV
attr interpolationmode none
attr title "packet pushed, vector(packetBytes)"
vector 40 SimpleDropping.switch.eth[0].mac.queue queueLength:vector ETV
attr interpolationmode sample-hold
attr source "count(packetPushed) - count(packetPopped) - count(packetRemoved) - count(packetDropped)"
attr title "queue length, vector"
vector 41 SimpleDropping.switch.eth[0].mac.queue packetPopped:vector(packetBytes) ETV
attr interpolationmode none
attr title "packet popped, vector(packetBytes)"
vector 42 SimpleDropping.switch.eth[0].mac.queue queueingTime:vector ETV
attr interpolationmode none
attr source queueingTime(packetPopped)
attr title "queueing times, vector"
attr unit s
vector 43 SimpleDropping.switch.eth[2].mac txPk:vector(packetBytes) ETV
attr interpolationmode none
attr source packetSentToLower
attr title "packets transmitted, vector(packetBytes)"
vector 44 SimpleDropping.router.eth[1].mac rxPkOk:vector(packetBytes) ETV
attr interpolationmode none
attr source rxPkOk
attr title "packets received OK, vector(packetBytes)"
vector 45 SimpleDropping.router.eth[1].mac passedUpPk:vector(packetBytes) ETV
attr interpolationmode none
attr source packetSentToUpper
attr title "packets passed to higher layer, vector(packetBytes)"
vector 46 SimpleDropping.router.eth[1].encap decapPk:vector(packetBytes) ETV
attr interpolationmode none
attr source decapPk
attr title "packets decapsulated, vector(packetBytes)"
vector 47 SimpleDropping.router.ipv4.arp arpReplySent:vector(packetBytes) ETV
attr source arpReplySent
attr title "ARP replies sent, vector(packetBytes)"
vector 48 SimpleDropping.router.eth[1].encap encapPk:vector(packetBytes) ETV
attr interpolationmode none
attr source encapPk
attr title "packets encapsulated, vector(packetBytes)"
vector 49 SimpleDropping.router.eth[1].mac packetReceivedFromUpper:vector(packetBytes) ETV
attr interpolationmode none
attr source packetReceivedFromUpper
attr title "packet bytes from higher layer, vector(packetBytes)"
vector 50 SimpleDropping.router.eth[1].mac.queue packetPushed:vector(packetBytes) ETV
attr interpolationmode none
attr title "packet pushed, vector(packetBytes)"
vector 51 SimpleDropping.router.eth[1].mac.queue queueLength:vector ETV
attr interpolationmode sample-hold
attr source "count(packetPushed) - count(packetPopped) - count(packetRemoved) - count(packetDropped)"
attr title "queue length, vector"
vector 52 SimpleDropping.router.eth[1].mac.queue packetPopped:vector(packetBytes) ETV
attr interpolationmode none
attr title "packet popped, vector(packetBytes)"
vector 53 SimpleDropping.router.eth[1].mac.queue queueingTime:vector ETV
attr interpolationmode none
attr source queueingTime(packetPopped)
attr title "queueing times, vector"
attr unit s
vector 54 SimpleDropping.switch.eth[0].mac txPk:vector(packetBytes) ETV
attr interpolationmode none
attr source packetSentToLower
attr title "packets transmitted, vector(packetBytes)"
vector 55 SimpleDropping.switch.eth[1].mac txPk:vector(packetBytes) ETV
attr interpolationmode none
attr source packetSentToLower
attr title "packets transmitted, vector(packetBytes)"
vector 56 SimpleDropping.client[0].eth[0].mac rxPkOk:vector(packetBytes) ETV
attr interpolationmode none
attr source rxPkOk
attr title "packets received OK, vector(packetBytes)"
vector 57 SimpleDropping.client[0].eth[0].mac passedUpPk:vector(packetBytes) ETV
attr interpolationmode none
attr source packetSentToUpper
attr title "packets passed to higher layer, vector(packetBytes)"
vector 58 SimpleDropping.client[1].eth[0].mac rxPkOk:vector(packetBytes) ETV
attr interpolationmode none
attr source rxPkOk
attr title "packets received OK, vector(packetBytes)"
vector 59 SimpleDropping.client[1].eth[0].mac passedUpPk:vector(packetBytes) ETV
attr interpolationmode none
attr source packetSentToUpper
attr title "packets passed to higher layer, vector(packetBytes)"
vector 60 SimpleDropping.client[0].eth[0].encap decapPk:vector(packetBytes) ETV
attr interpolationmode none
attr source decapPk
attr title "packets decapsulated, vector(packetBytes)"
vector 61 SimpleDropping.client[1].eth[0].encap decapPk:vector(packetBytes) ETV
attr interpolationmode none
attr source decapPk
attr title "packets decapsulated, vector(packetBytes)"
vector 62 SimpleDropping.router.eth[1].mac txPk:vector(packetBytes) ETV
attr interpolationmode none
attr source packetSentToLower
attr title "packets transmitted, vector(packetBytes)"
vector 63 SimpleDropping.switch.eth[2].mac rxPkOk:vector(packetBytes) ETV
attr interpolationmode none
attr source rxPkOk
attr title "packets received OK, vector(packetBytes)"
vector 64 SimpleDropping.switch.eth[2].mac passedUpPk:vector(packetBytes) ETV
attr interpolationmode none
attr source packetSentToUpper
attr title "packets passed to higher layer, vector(packetBytes)"
vector 65 SimpleDropping.router.ipv4.arp arpRequestSent:vector(packetBytes) ETV
attr source arpRequestSent
attr title "ARP request sent, vector(packetBytes)"
vector 66 SimpleDropping.router.eth[0].encap encapPk:vector(packetBytes) ETV
attr interpolationmode none
attr source encapPk
attr title "packets encapsulated, vector(packetBytes)"
vector 67 SimpleDropping.router.eth[0].mac packetReceivedFromUpper:vector(packetBytes) ETV
attr interpolationmode none
attr source packetReceivedFromUpper
attr title "packet bytes from higher layer, vector(packetBytes)"
vector 68 SimpleDropping.router.eth[0].mac.queue packetPushed:vector(packetBytes) ETV
attr interpolationmode none
attr title "packet pushed, vector(packetBytes)"
vector 69 SimpleDropping.router.eth[0].mac.queue queueLength:vector ETV
attr interpolationmode sample-hold
attr source "count(packetPushed) - count(packetPopped) - count(packetRemoved) - count(packetDropped)"
attr title "queue length, vector"
vector 70 SimpleDropping.router.eth[0].mac.queue packetPopped:vector(packetBytes) ETV
attr interpolationmode none
attr title "packet popped, vector(packetBytes)"
vector 71 SimpleDropping.router.eth[0].mac.queue queueingTime:vector ETV
attr interpolationmode none
attr source queueingTime(packetPopped)
attr title "queueing times, vector"
attr unit s
vector 72 SimpleDropping.router.eth[0].mac txPk:vector(packetBytes) ETV
attr interpolationmode none
attr source packetSentToLower
attr title "packets transmitted, vector(packetBytes)"
vector 73 SimpleDropping.server.eth[0].mac rxPkOk:vector(packetBytes) ETV
attr interpolationmode none
attr source rxPkOk
attr title "packets received OK, vector(packetBytes)"
vector 74 SimpleDropping.server.eth[0].mac passedUpPk:vector(packetBytes) ETV
attr interpolationmode none
attr source packetSentToUpper
attr title "packets passed to higher layer, vector(packetBytes)"
vector 75 SimpleDropping.server.eth[0].encap decapPk:vector(packetBytes) ETV
attr interpolationmode none
attr source decapPk
attr title "packets decapsulated, vector(packetBytes)"
vector 76 SimpleDropping.server.ipv4.arp arpReplySent:vector(packetBytes) ETV
attr source arpReplySent
attr title "ARP replies sent, vector(packetBytes)"
vector 77 SimpleDropping.server.eth[0].encap encapPk:vector(packetBytes) ETV
attr interpolationmode none
attr source encapPk
attr title "packets encapsulated, vector(packetBytes)"
vector 78 SimpleDropping.server.eth[0].mac packetReceivedFromUpper:vector(packetBytes) ETV
attr interpolationmode none
attr source packetReceivedFromUpper
attr title "packet bytes from higher layer, vector(packetBytes)"
vector 79 SimpleDropping.server.eth[0].mac.queue packetPushed:vector(packetBytes) ETV
attr interpolationmode none
attr title "packet pushed, vector(packetBytes)"
vector 80 SimpleDropping.server.eth[0].mac.queue queueLength:vector ETV
attr interpolationmode sample-hold
attr source "count(packetPushed) - count(packetPopped) - count(packetRemoved) - count(packetDropped)"
attr title "queue length, vector"
vector 81 SimpleDropping.server.eth[0].mac.queue packetPopped:vector(packetBytes) ETV
attr interpolationmode none
attr title "packet popped, vector(packetBytes)"
vector 82 SimpleDropping.server.eth[0].mac.queue queueingTime:vector ETV
attr interpolationmode none
attr source queueingTime(packetPopped)
attr title "queueing times, vector"
attr unit s
vector 83 SimpleDropping.server.eth[0].mac txPk:vector(packetBytes) ETV
attr interpolationmode none
attr source packetSentToLower
attr title "packets transmitted, vector(packetBytes)"
vector 84 SimpleDropping.router.eth[0].mac rxPkOk:vector(packetBytes) ETV
attr interpolationmode none
attr source rxPkOk
attr title "packets received OK, vector(packetBytes)"
vector 85 SimpleDropping.router.eth[0].mac passedUpPk:vector(packetBytes) ETV
attr interpolationmode none
attr source packetSentToUpper
attr title "packets passed to higher layer, vector(packetBytes)"
vector 86 SimpleDropping.router.eth[0].encap decapPk:vector(packetBytes) ETV
attr interpolationmode none
attr source decapPk
attr title "packets decapsulated, vector(packetBytes)"
vector 87 SimpleDropping.server.tcp.conn-2 rcvSeq:vector ETV
attr interpolationmode sample-hold
vector 88 SimpleDropping.server.tcp.conn-2 rcvAck:vector ETV
attr interpolationmode sample-hold
vector 89 SimpleDropping.server.tcp.conn-5 rcvAdv:vector ETV
attr interpolationmode sample-hold
vector 90 SimpleDropping.server.tcp.conn-5 sndWnd:vector ETV
attr interpolationmode sample-hold
vector 91 SimpleDropping.server.tcp.conn-5 tcpRcvQueueBytes:vector ETV
attr interpolationmode sample-hold
vector 92 SimpleDropping.server.tcp.conn-5 rcvWnd:vector ETV
attr interpolationmode sample-hold
vector 93 SimpleDropping.server.tcp.conn-5 sndAck:vector ETV
attr interpolationmode sample-hold
vector 94 SimpleDropping.server.tcp.conn-6 rcvAdv:vector ETV
attr interpolationmode sample-hold
vector 95 SimpleDropping.server.tcp.conn-6 sndWnd:vector ETV
attr interpolationmode sample-hold
vector 96 SimpleDropping.server.tcp.conn-6 tcpRcvQueueBytes:vector ETV
attr interpolationmode sample-hold
vector 97 SimpleDropping.server.tcp.conn-6 rcvWnd:vector ETV
attr interpolationmode sample-hold
vector 98 SimpleDropping.server.tcp.conn-6 sndAck:vector ETV
attr interpolationmode sample-hold
vector 99 SimpleDropping.client[0].tcp.conn-3 rcvSeq:vector ETV
attr interpolationmode sample-hold
vector 100 SimpleDropping.client[0].tcp.conn-3 rcvAck:vector ETV
attr interpolationmode sample-hold
vector 101 SimpleDropping.client[0].tcp.conn-3 sndWnd:vector ETV
attr interpolationmode sample-hold
vector 102 SimpleDropping.client[0].app[0] packetSent:vector(packetBytes) ETV
attr interpolationmode none
attr source packetSent
attr title "packets sent, vector(packetBytes)"
vector 103 SimpleDropping.client[0].tcp.conn-3 sndNxt:vector ETV
attr interpolationmode sample-hold
vector 104 SimpleDropping.client[0].tcp.conn-3 unacked:vector ETV
attr interpolationmode sample-hold
vector 105 SimpleDropping.client[1].tcp.conn-4 rcvSeq:vector ETV
attr interpolationmode sample-hold
vector 106 SimpleDropping.client[1].tcp.conn-4 rcvAck:vector ETV
attr interpolationmode sample-hold
vector 107 SimpleDropping.client[1].tcp.conn-4 sndWnd:vector ETV
attr interpolationmode sample-hold
vector 108 SimpleDropping.client[1].app[0] packetSent:vector(packetBytes) ETV
attr interpolationmode none
attr source packetSent
attr title "packets sent, vector(packetBytes)"
vector 109 SimpleDropping.client[1].tcp.conn-4 sndNxt:vector ETV
attr interpolationmode sample-hold
vector 110 SimpleDropping.client[1].tcp.conn-4 unacked:vector ETV
attr interpolationmode sample-hold
vector 111 SimpleDropping.server.tcp.conn-5 rcvSeq:vector ETV
attr interpolationmode sample-hold
vector 112 SimpleDropping.server.tcp.conn-5 rcvAck:vector ETV
attr interpolationmode sample-hold
vector 113 SimpleDropping.server.tcp.conn-5 unacked:vector ETV
attr interpolationmode sample-hold
vector 114 SimpleDropping.server.tcp.conn-6 rcvSeq:vector ETV
attr interpolationmode sample-hold
vector 115 SimpleDropping.server.tcp.conn-6 rcvAck:vector ETV
attr interpolationmode sample-hold
vector 116 SimpleDropping.server.tcp.conn-6 unacked:vector ETV
attr interpolationmode sample-hold
vector 117 SimpleDropping.server.ipv4.ip rcvdPkt:vector ETV
attr interpolationmode none
attr source packetReceived
attr title "Number of packet received, vector"
vector 118 SimpleDropping.server.ipv4.ip packetDropForwardingDisabled:vector(packetBytes) ETV
attr interpolationmode none
attr source packetDropReasonIsForwardingDisabled(packetDropped)
attr title "packet drop: forwarding disabled, vector(packetBytes)"
0	20295 48 5 173 1 1.000007512 3 0 0 0 0
1	20343 86 5 173 1 1.000007512 4 7504 257506 780022 198984330124
2	20429 57 5 173 1 1.000007512 3 7504 7504 22512 168930048
3	20486 58 5 173 1 1.000007512 3 0 250002 500004 125002000008
4	20544 48 6 199 1 1.000008184 3 0 0 0 0
5	20592 86 6 199 1 1.000008184 4 7504 257506 780022 198984330124
6	20678 57 6 199 1 1.000008184 3 7504 7504 22512 168930048
7	20735 58 6 199 1 1.000008184 3 0 250002 500004 125002000008
8	20793 9 7 7 1 1 1 28 28 28 784
9	20802 9 8 8 1 1 1 28 28 28 784
10	20811 76 9 175 1 1.000007512 4 28 576 688 336096
11	20887 77 10 201 1 1.000008184 4 28 576 688 336096
12	20964 77 11 176 1 1.000007512 4 46 594 760 362160
13	21041 77 11 176 1 1.000007512 4 64 594 786 365124
14	21118 144 11 190 1 1.000008184 8 0 1 4 4
15	21262 77 11 190 1 1.000008184 4 64 594 786 365124
16	21339 79 11 190 1 1.000008184 4 0 6.72e-07 6.72e-07 4.51584e-13
17	21418 77 12 202 1 1.000008184 4 46 594 760 362160
18	21495 77 12 202 1 1.000008184 4 64 594 786 365124
19	21572 144 12 218 1 1.000008856 8 0 1 4 4
20	21716 77 12 218 1 1.000008856 4 64 594 786 365124
21	21793 79 12 218 1 1.000008856 4 0 6.72e-07 6.72e-07 4.51584e-13
22	21872 83 15 246 1.000000576 1.000013 4 64 594 786 365124
23	21955 86 16 252 1.000000576 1.000013672 4 64 594 786 365124
24	22041 85 17 247 1.000000626 1.00001305 4 64 594 786 365124
25	22126 85 17 247 1.000000626 1.00001305 4 64 594 786 365124
26	22211 86 18 253 1.000000626 1.000013722 4 64 594 786 365124
27	22297 86 18 253 1.000000626 1.000013722 4 64 594 786 365124
28	22383 63 21 180 1.000000626 1.000007558 3 64 64 192 12288
29	22446 63 21 180 1.000000626 1.000007558 3 64 64 192 12288
30	22509 120 21 180 1.000000626 1.000007558 6 0 1 3 3
31	22629 63 21 180 1.000000626 1.000007558 3 64 64 192 12288
32	22692 60 21 180 1.000000626 1.000007558 3 0 0 0 0
33	22752 171 22 255 1.000000626 1.000013722 8 64 594 1572 730248
34	22923 171 22 255 1.000000626 1.000013722 8 64 594 1572 730248
35	23094 322 22 258 1.000000626 1.000017866 16 0 1 8 8
36	23416 171 22 258 1.000000626 1.000017866 8 64 594 1572 730248
37	23587 176 22 258 1.000000626 1.000017866 8 0 4.144e-06 4.72e-06 1.7504512e-11
38	23763 64 23 152 1.000000626 1.000006886 3 64 64 192 12288
39	23827 64 23 152 1.000000626 1.000006886 3 64 64 192 12288
40	23891 122 23 152 1.000000626 1.000006886 6 0 1 3 3
41	24013 64 23 152 1.000000626 1.000006886 3 64 64 192 12288
42	24077 61 23 152 1.000000626 1.000006886 3 0 0 0 0
43	24138 175 29 266 1.000001202 1.000022778 8 64 594 1572 730248
44	24313 175 30 270 1.000001252 1.000022828 8 64 594 1572 730248
45	24488 175 30 270 1.000001252 1.000022828 8 64 594 1572 730248
46	24663 175 31 272 1.000001252 1.000022828 8 46 576 1428 676248
47	24838 42 32 55 1.000001252 1.000001924 2 28 28 56 1568
48	24880 85 33 157 1.000001252 1.000006932 4 28 44 144 5440
49	24965 85 34 158 1.000001252 1.000006932 4 46 62 216 11920
50	25050 85 34 158 1.000001252 1.000006932 4 64 64 256 16384
51	25135 162 34 158 1.000001252 1.000006932 8 0 1 4 4
52	25297 85 34 158 1.000001252 1.000006932 4 64 64 256 16384
53	25382 81 34 158 1.000001252 1.000006932 4 0 0 0 0
54	25463 64 35 162 1.000001298 1.000007462 3 64 64 192 12288
55	25527 64 36 185 1.000001298 1.000008134 3 64 64 192 12288
56	25591 64 39 164 1.000001348 1.000007512 3 64 64 192 12288
57	25655 64 39 164 1.000001348 1.000007512 3 64 64 192 12288
58	25719 64 40 189 1.000001348 1.000008184 3 64 64 192 12288
59	25783 64 40 189 1.000001348 1.000008184 3 64 64 192 12288
60	25847 64 41 165 1.000001348 1.000007512 3 46 46 138 6348
61	25911 64 42 191 1.000001348 1.000008184 3 46 46 138 6348
62	25975 84 47 163 1.000001828 1.000007508 4 64 64 256 16384
63	26059 85 49 177 1.000001878 1.000007558 4 64 64 256 16384
64	26144 85 49 177 1.000001878 1.000007558 4 64 64 256 16384
65	26229 21 92 92 1.000003756 1.000003756 1 28 28 28 784
66	26250 155 93 274 1.000003756 1.000022828 7 28 576 1348 671408
67	26405 155 94 275 1.000003756 1.000022828 7 46 594 1474 722204
68	26560 155 94 275 1.000003756 1.000022828 7 64 594 1508 726152
69	26715 291 94 275 1.000003756 1.000022828 14 0 1 7 7
70	27006 154 94 275 1.000003756 1.000022828 7 64 594 1508 726152
71	27160 152 94 275 1.000003756 1.000022828 7 0 6.72e-07 6.72e-07 4.51584e-13
72	27312 155 101 277 1.000004332 1.000027644 7 64 594 1508 726152
73	27467 155 103 278 1.000004382 1.000027694 7 64 594 1508 726152
74	27622 155 103 278 1.000004382 1.000027694 7 64 594 1508 726152
75	27777 155 104 279 1.000004382 1.000027694 7 46 576 1382 674132
76	27932 22 105 105 1.000004382 1.000004382 1 28 28 28 784
77	27954 66 106 144 1.000004382 1.000006306 3 28 44 116 4656
78	28020 66 107 145 1.000004382 1.000006306 3 46 62 170 9804
79	28086 66 107 145 1.000004382 1.000006306 3 64 64 192 12288
80	28152 126 107 145 1.000004382 1.000006306 6 0 1 3 3
81	28278 66 107 145 1.000004382 1.000006306 3 64 64 192 12288
82	28344 63 107 145 1.000004382 1.000006306 3 0 0 0 0
83	28407 65 113 149 1.000004958 1.000006882 3 64 64 192 12288
84	28472 65 114 153 1.000005008 1.000006932 3 64 64 192 12288
85	28537 65 114 153 1.000005008 1.000006932 3 64 64 192 12288
86	28602 65 115 155 1.000005008 1.000006932 3 46 46 138 6348
87	28667 52 126 142 1.000005634 1.000006306 2 250000 250000 500000 125000000000
88	28719 42 126 142 1.000005634 1.000006306 2 0 0 0 0
89	28761 52 126 126 1.000005634 1.000005634 2 257505 257505 515010 132617650050
90	28813 47 126 226 1.000005634 1.00000939 2 7504 7504 15008 112620032
91	28860 21 126 126 1.000005634 1.000005634 1 0 0 0 0
92	28881 24 126 126 1.000005634 1.000005634 1 7504 7504 7504 56310016
93	28905 26 126 126 1.000005634 1.000005634 1 250001 250001 250001 62500500001
94	28931 52 142 142 1.000006306 1.000006306 2 257505 257505 515010 132617650050
95	28983 48 142 241 1.000006306 1.000010062 2 7504 7504 15008 112620032
96	29031 21 142 142 1.000006306 1.000006306 1 0 0 0 0
97	29052 24 142 142 1.000006306 1.000006306 1 7504 7504 7504 56310016
98	29076 26 142 142 1.000006306 1.000006306 1 250001 250001 250001 62500500001
99	29102 26 167 167 1.000007512 1.000007512 1 250001 250001 250001 62500500001
100	29128 27 167 167 1.000007512 1.000007512 1 250001 250001 250001 62500500001
101	29155 25 167 167 1.000007512 1.000007512 1 7504 7504 7504 56310016
102	29180 28 171 171 1.000007512 1.000007512 1 1048576 1048576 1048576 1099511627776
103	29208 27 173 173 1.000007512 1.000007512 1 250001 250001 250001 62500500001
104	29235 24 173 173 1.000007512 1.000007512 1 536 536 536 287296
105	29259 27 193 193 1.000008184 1.000008184 1 250001 250001 250001 62500500001
106	29286 27 193 193 1.000008184 1.000008184 1 250001 250001 250001 62500500001
107	29313 25 193 193 1.000008184 1.000008184 1 7504 7504 7504 56310016
108	29338 28 197 197 1.000008184 1.000008184 1 1048576 1048576 1048576 1099511627776
109	29366 27 199 199 1.000008184 1.000008184 1 250001 250001 250001 62500500001
110	29393 24 199 199 1.000008184 1.000008184 1 536 536 536 287296
111	29417 26 226 226 1.00000939 1.00000939 1 250001 250001 250001 62500500001
112	29443 26 226 226 1.00000939 1.00000939 1 250002 250002 250002 62501000004
113	29469 21 226 226 1.00000939 1.00000939 1 0 0 0 0
114	29490 27 241 241 1.000010062 1.000010062 1 250001 250001 250001 62500500001
115	29517 27 241 241 1.000010062 1.000010062 1 250002 250002 250002 62501000004
116	29544 22 241 241 1.000010062 1.000010062 1 0 0 0 0
117	29566 58 269 280 1.000022782 1.000027694 2 62436369 62436370 124872739 7.7966004726811e+15
118	29624 48 269 280 1.000022782 1.000027694 2 576 576 1152 663552
vector 119 SimpleDropping.client[0].tcp.conn-3 numRtos:vector ETV
attr interpolationmode sample-hold
vector 120 SimpleDropping.client[0].tcp.conn-3 ssthresh:vector ETV
attr interpolationmode sample-hold
vector 121 SimpleDropping.client[0].tcp.conn-3 cwnd:vector ETV
attr interpolationmode sample-hold
vector 122 SimpleDropping.client[1].tcp.conn-4 numRtos:vector ETV
attr interpolationmode sample-hold
vector 123 SimpleDropping.client[1].tcp.conn-4 ssthresh:vector ETV
attr interpolationmode sample-hold
vector 124 SimpleDropping.client[1].tcp.conn-4 cwnd:vector ETV
attr interpolationmode sample-hold
vector 125 SimpleDropping.server.tcp.conn-6 dupAcks:vector ETV
attr interpolationmode sample-hold
vector 126 SimpleDropping.server.app[0] packetReceived:vector(packetBytes) ETV
attr interpolationmode none
attr source packetReceived
attr title "packets received, vector(packetBytes)"
vector 127 SimpleDropping.server.app[0] endToEndDelay:vector ETV
attr interpolationmode none
attr source dataAge(packetReceived)
attr title "end-to-end delay, vector"
attr unit s
vector 128 SimpleDropping.server.app[0] packetSent:vector(packetBytes) ETV
attr interpolationmode none
attr source packetSent
attr title "packets sent, vector(packetBytes)"
vector 129 SimpleDropping.server.tcp.conn-6 sndNxt:vector ETV
attr interpolationmode sample-hold
vector 130 SimpleDropping.client[1].tcp.conn-4 dupAcks:vector ETV
attr interpolationmode sample-hold
vector 131 SimpleDropping.client[1].app[0] packetReceived:vector(packetBytes) ETV
attr interpolationmode none
attr source packetReceived
attr title "packets received, vector(packetBytes)"
vector 132 SimpleDropping.client[1].app[0] endToEndDelay:vector ETV
attr interpolationmode none
attr source dataAge(packetReceived)
attr title "end-to-end delay, vector"
attr unit s
vector 133 SimpleDropping.server.tcp.conn-6 rcvOooSeg:vector ETV
attr interpolationmode sample-hold
vector 134 SimpleDropping.server.tcp.conn-6 rtt:vector ETV
attr interpolationmode sample-hold
vector 135 SimpleDropping.server.tcp.conn-6 srtt:vector ETV
attr interpolationmode sample-hold
vector 136 SimpleDropping.server.tcp.conn-6 rttvar:vector ETV
attr interpolationmode sample-hold
vector 137 SimpleDropping.server.tcp.conn-6 rto:vector ETV
attr interpolationmode sample-hold
vector 138 SimpleDropping.server.tcp.conn-6 cwnd:vector ETV
attr interpolationmode sample-hold
vector 139 SimpleDropping.server.tcp.conn-6 ssthresh:vector ETV
attr interpolationmode sample-hold
0	32151 20 286 286 4.000007512 4.000007512 1 0 0 0 0
1	32171 25 286 286 4.000007512 4.000007512 1 257506 257506 257506 66309340036
2	32196 23 286 286 4.000007512 4.000007512 1 7504 7504 7504 56310016
3	32219 25 286 286 4.000007512 4.000007512 1 250002 250002 250002 62501000004
4	32244 96 291 404 4.000008184 4.000042292 5 0 0 0 0
5	32340 96 291 404 4.000008184 4.000042292 4 257506 258042 1030560 265513693872
6	32436 88 291 404 4.000008184 4.000042292 4 7504 7504 30016 225240064
7	32524 96 291 404 4.000008184 4.000042292 4 250002 250538 1000544 250272289456
10	32620 23 288 288 4.000007512 4.000007512 1 576 576 576 331776
11	32643 87 293 407 4.000008184 4.000042292 4 40 576 1768 996928
12	32730 23 289 289 4.000007512 4.000007512 1 594 594 594 352836
13	32753 23 289 289 4.000007512 4.000007512 1 594 594 594 352836
14	32776 42 289 289 4.000007512 4.000007512 2 0 1 1 1
15	32818 23 289 289 4.000007512 4.000007512 1 594 594 594 352836
16	32841 21 289 289 4.000007512 4.000007512 1 0 0 0 0
17	32862 87 294 408 4.000008184 4.000042292 4 58 594 1840 1061872
18	32949 87 294 408 4.000008184 4.000042292 4 64 594 1846 1062604
19	33036 162 294 408 4.000008184 4.000042292 8 0 1 4 4
20	33198 89 294 408 4.000008184 4.000042292 4 64 594 1846 1062604
21	33287 90 294 408 4.000008184 4.000042292 4 0 4.912e-06 4.912e-06 2.4127744e-11
22	33377 23 296 296 4.000012328 4.000012328 1 594 594 594 352836
23	33400 88 302 411 4.000013 4.000042868 4 64 594 1846 1062604
24	33488 23 297 297 4.000012378 4.000012378 1 594 594 594 352836
25	33511 23 297 297 4.000012378 4.000012378 1 594 594 594 352836
26	33534 90 303 412 4.00001305 4.000042918 4 64 594 1846 1062604
27	33624 90 303 412 4.00001305 4.000042918 4 64 594 1846 1062604
28	33714 67 352 462 4.000028274 4.000049662 3 64 594 722 361028
29	33781 67 352 462 4.000028274 4.000049662 3 64 594 722 361028
30	33848 126 352 462 4.000028274 4.000049662 6 0 1 3 3
31	33974 67 352 462 4.000028274 4.000049662 3 64 594 722 361028
32	34041 63 352 462 4.000028274 4.000049662 3 0 0 0 0
33	34104 113 299 414 4.000012378 4.000042918 5 64 594 2440 1415440
34	34217 113 299 414 4.000012378 4.000042918 5 64 594 2440 1415440
35	34330 209 299 418 4.000012378 4.000043494 10 0 1 5 5
36	34539 114 299 418 4.000012378 4.000043494 5 64 594 2440 1415440
37	34653 120 299 418 4.000012378 4.000043494 5 0 4.144e-06 4.72e-06 1.7504512e-11
43	34773 114 308 429 4.000017194 4.000044166 5 64 594 2440 1415440
44	34887 114 309 430 4.000017244 4.000044216 5 64 594 2440 1415440
45	35001 114 309 430 4.000017244 4.000044216 5 64 594 2440 1415440
46	35115 114 310 431 4.000017244 4.000044216 5 46 576 2350 1329220
48	35229 66 345 450 4.000027648 4.000049036 3 40 576 656 334976
49	35295 66 346 451 4.000027648 4.000049036 3 58 594 710 359564
50	35361 66 346 451 4.000027648 4.000049036 3 64 594 722 361028
51	35427 124 346 451 4.000027648 4.000049036 6 0 1 3 3
52	35551 66 346 451 4.000027648 4.000049036 3 64 594 722 361028
53	35617 62 346 451 4.000027648 4.000049036 3 0 0 0 0
55	35679 44 355 400 4.00002885 4.000042242 2 64 594 658 356932
58	35723 43 356 401 4.0000289 4.000042292 2 64 594 658 356932
59	35766 43 356 401 4.0000289 4.000042292 2 64 594 658 356932
61	35809 43 357 402 4.0000289 4.000042292 2 46 576 622 333892
62	35852 67 349 459 4.000028224 4.000049612 3 64 594 722 361028
63	35919 67 350 460 4.000028274 4.000049662 3 64 594 722 361028
64	35986 67 350 460 4.000028274 4.000049662 3 64 594 722 361028
66	36053 114 312 433 4.000017244 4.000044216 5 40 576 2344 1328704
67	36167 114 313 434 4.000017244 4.000044216 5 58 594 2434 1414708
68	36281 114 313 434 4.000017244 4.000044216 5 64 594 2440 1415440
69	36395 210 313 444 4.000017244 4.000048456 10 0 1 5 5
70	36605 114 313 444 4.000017244 4.000048456 5 64 594 2440 1415440
71	36719 112 313 444 4.000017244 4.000048456 5 0 4.24e-06 4.24e-06 1.79776e-11
72	36831 112 315 446 4.00002206 4.000049032 5 64 594 2440 1415440
73	36943 112 317 452 4.00002211 4.000049082 5 64 594 2440 1415440
74	37055 112 317 452 4.00002211 4.000049082 5 64 594 2440 1415440
75	37167 112 318 454 4.00002211 4.000049082 5 46 576 2350 1329220
77	37279 66 335 442 4.000027022 4.00004841 3 40 576 656 334976
78	37345 66 337 443 4.000027022 4.00004841 3 58 594 710 359564
79	37411 66 337 443 4.000027022 4.00004841 3 64 594 722 361028
80	37477 124 337 443 4.000027022 4.00004841 6 0 1 3 3
81	37601 66 337 443 4.000027022 4.00004841 3 64 594 722 361028
82	37667 69 337 443 4.000027022 4.00004841 3 0 6.72e-07 6.72e-07 4.51584e-13
83	37736 66 341 445 4.000027598 4.000048986 3 64 594 722 361028
84	37802 66 342 447 4.000027648 4.000049036 3 64 594 722 361028
85	37868 66 342 447 4.000027648 4.000049036 3 64 594 722 361028
86	37934 66 343 448 4.000027648 4.000049036 3 46 576 668 336008
94	38000 77 331 440 4.000027022 4.00004841 3 258041 258041 774123 199755473043
95	38077 24 456 456 4.000049082 4.000049082 1 7504 7504 7504 56310016
96	38101 105 331 440 4.000027022 4.00004841 5 0 536 536 287296
97	38206 71 331 440 4.000027022 4.00004841 3 7504 7504 22512 168930048
98	38277 77 331 440 4.000027022 4.00004841 3 250537 250537 751611 188306365107
103	38354 27 286 286 4.000007512 4.000007512 1 250001 250001 250001 62500500001
105	38381 52 359 404 4.0000289 4.000042292 2 250002 250002 500004 125002000008
106	38433 52 359 404 4.0000289 4.000042292 2 250537 250537 501074 125537576738
107	38485 23 359 359 4.0000289 4.0000289 1 7504 7504 7504 56310016
109	38508 77 291 359 4.000008184 4.0000289 3 250001 251073 751611 188306939699
110	38585 43 359 359 4.0000289 4.0000289 2 0 1072 1072 1149184
114	38628 80 331 456 4.000027022 4.000049082 3 250001 251609 752683 188845240211
115	38708 80 331 456 4.000027022 4.000049082 3 250002 250538 750542 187771289452
116	38788 46 334 456 4.000027022 4.000049082 2 0 536 536 287296
117	38834 114 319 439 4.00002211 4.00004841 4 62436371 62436374 249745490 1.5593202443835e+16
118	38948 47 319 421 4.00002211 4.000043498 2 576 576 1152 663552
119	38995 22 286 286 4.000007512 4.000007512 1 1 1 1 1
120	39017 25 286 286 4.000007512 4.000007512 1 1072 1072 1072 1149184
121	39042 24 286 286 4.000007512 4.000007512 1 536 536 536 287296
122	39066 22 291 291 4.000008184 4.000008184 1 1 1 1 1
123	39088 48 291 359 4.000008184 4.0000289 2 1072 1072 2144 2298368
124	39136 47 291 359 4.000008184 4.0000289 2 536 1072 1608 1436480
125	39183 65 331 456 4.000027022 4.000049082 3 0 0 0 0
126	39248 24 332 332 4.000027022 4.000027022 1 536 536 536 287296
127	39272 32 332 332 4.000027022 4.000027022 1 3.000018838 3.000018838 3.000018838 9.0001130283549
128	39304 24 332 332 4.000027022 4.000027022 1 536 536 536 287296
129	39328 27 334 334 4.000027022 4.000027022 1 250002 250002 250002 62501000004
130	39355 42 359 404 4.0000289 4.000042292 2 0 0 0 0
131	39397 24 405 405 4.000042292 4.000042292 1 536 536 536 287296
132	39421 32 405 405 4.000042292 4.000042292 1 3.000034108 3.000034108 3.000034108 9.0002046491634
133	39453 21 440 440 4.00004841 4.00004841 1 1 1 1 1
134	39474 30 456 456 4.000049082 4.000049082 1 2.206e-05 2.206e-05 2.206e-05 4.866436e-10
135	39504 31 456 456 4.000049082 4.000049082 1 2.7575e-06 2.7575e-06 2.7575e-06 7.60380625e-12
136	39535 33 456 456 4.000049082 4.000049082 1 0.6562527575 0.6562527575 0.6562527575 0.43066768172635
137	39568 33 456 456 4.000049082 4.000049082 1 2.6250137875 2.6250137875 2.6250137875 6.8906973845651
138	39601 25 456 456 4.000049082 4.000049082 1 1072 1072 1072 1149184
139	39626 31 456 456 4.000049082 4.000049082 1 4294967295 4294967295 4294967295 1.844674406512e+19

